McPAT (version 1.0 of Aug, 2013) is computing the target processor...
 
Warning: InstBuffer array structure cannot satisfy latency constraint.
Warning: ReorderBuffer array structure cannot satisfy throughput constraint.
Warning: ReorderBuffer array structure cannot satisfy latency constraint.
Warning: InstBuffer array structure cannot satisfy latency constraint.
Warning: ReorderBuffer array structure cannot satisfy throughput constraint.
Warning: ReorderBuffer array structure cannot satisfy latency constraint.
Warning: InstBuffer array structure cannot satisfy latency constraint.
Warning: ReorderBuffer array structure cannot satisfy throughput constraint.
Warning: ReorderBuffer array structure cannot satisfy latency constraint.
Warning: InstBuffer array structure cannot satisfy latency constraint.
Warning: ReorderBuffer array structure cannot satisfy throughput constraint.
Warning: ReorderBuffer array structure cannot satisfy latency constraint.
Warning: InstBuffer array structure cannot satisfy latency constraint.
Warning: ReorderBuffer array structure cannot satisfy throughput constraint.
Warning: ReorderBuffer array structure cannot satisfy latency constraint.
Warning: InstBuffer array structure cannot satisfy latency constraint.
Warning: ReorderBuffer array structure cannot satisfy throughput constraint.
Warning: ReorderBuffer array structure cannot satisfy latency constraint.
Warning: InstBuffer array structure cannot satisfy latency constraint.
Warning: ReorderBuffer array structure cannot satisfy throughput constraint.
Warning: ReorderBuffer array structure cannot satisfy latency constraint.
Warning: InstBuffer array structure cannot satisfy latency constraint.
Warning: ReorderBuffer array structure cannot satisfy throughput constraint.
Warning: ReorderBuffer array structure cannot satisfy latency constraint.
Warning: InstBuffer array structure cannot satisfy latency constraint.
Warning: ReorderBuffer array structure cannot satisfy throughput constraint.
Warning: ReorderBuffer array structure cannot satisfy latency constraint.
Warning: InstBuffer array structure cannot satisfy latency constraint.
Warning: ReorderBuffer array structure cannot satisfy throughput constraint.
Warning: ReorderBuffer array structure cannot satisfy latency constraint.
Warning: InstBuffer array structure cannot satisfy latency constraint.
Warning: ReorderBuffer array structure cannot satisfy throughput constraint.
Warning: ReorderBuffer array structure cannot satisfy latency constraint.
Warning: InstBuffer array structure cannot satisfy latency constraint.
Warning: ReorderBuffer array structure cannot satisfy throughput constraint.
Warning: ReorderBuffer array structure cannot satisfy latency constraint.
Warning: InstBuffer array structure cannot satisfy latency constraint.
Warning: ReorderBuffer array structure cannot satisfy throughput constraint.
Warning: ReorderBuffer array structure cannot satisfy latency constraint.
Warning: InstBuffer array structure cannot satisfy latency constraint.
Warning: ReorderBuffer array structure cannot satisfy throughput constraint.
Warning: ReorderBuffer array structure cannot satisfy latency constraint.
Warning: InstBuffer array structure cannot satisfy latency constraint.
Warning: ReorderBuffer array structure cannot satisfy throughput constraint.
Warning: ReorderBuffer array structure cannot satisfy latency constraint.
Warning: InstBuffer array structure cannot satisfy latency constraint.
Warning: ReorderBuffer array structure cannot satisfy throughput constraint.
Warning: ReorderBuffer array structure cannot satisfy latency constraint.

McPAT (version 1.0 of Aug, 2013) results  (current print level is 5)
*****************************************************************************************
  Technology 45 nm
  Using Long Channel Devices When Appropriate
  Interconnect metal projection= aggressive interconnect technology projection
  Core clock Rate(MHz) 2660

*****************************************************************************************
Processor: 
  Area = 28939.1 mm^2
  Peak Power = 3.34985e+06 W
  Total Leakage = 1396.83 W
  Peak Dynamic = 3.34846e+06 W
  Subthreshold Leakage = 1305.7 W
  Subthreshold Leakage with power gating = 560.316 W
  Gate Leakage = 91.1383 W
  Runtime Dynamic = 51704.4 W

  Total Cores: 16 cores 
  Device Type= ITRS high performance device type
    Area = 28783.2 mm^2
    Peak Dynamic = 3.34844e+06 W
    Subthreshold Leakage = 1291.2 W
    Subthreshold Leakage with power gating = 552.446 W
    Gate Leakage = 90.9553 W
    Runtime Dynamic = 51702.6 W

  Total L3s: 
  Device Type= ITRS high performance device type
    Area = 123.815 mm^2
    Peak Dynamic = 0.392241 W
    Subthreshold Leakage = 13.6017 W
    Subthreshold Leakage with power gating = 6.64728 W
    Gate Leakage = 0.0968273 W
    Runtime Dynamic = 0.223736 W

  Total NoCs (Network/Bus): 
  Device Type= ITRS high performance device type
    Area = 32.1086 mm^2
    Peak Dynamic = 11.7555 W
    Subthreshold Leakage = 0.89824 W
    Subthreshold Leakage with power gating = 0.33684 W
    Gate Leakage = 0.0861381 W
    Runtime Dynamic = 1.5617 W

*****************************************************************************************
Core:
      Area = 1798.95 mm^2
      Peak Dynamic = 209278 W
      Subthreshold Leakage = 80.6998 W
      Subthreshold Leakage with power gating = 34.5279 W
      Gate Leakage = 5.68471 W
      Runtime Dynamic = 3263.88 W

      Instruction Fetch Unit:
        Area = 47.2731 mm^2
        Peak Dynamic = 4064.26 W
        Subthreshold Leakage = 2.37932 W
        Subthreshold Leakage with power gating = 0.95452 W
        Gate Leakage = 0.23961 W
        Runtime Dynamic = 41.8945 W

          Instruction Cache:
            Area = 4.86613 mm^2
            Peak Dynamic = 9.04769 W
            Subthreshold Leakage = 0.486629 W
            Subthreshold Leakage with power gating = 0.22691 W
            Gate Leakage = 0.0421203 W
            Runtime Dynamic = 0.072909 W

          Branch Target Buffer:
            Area = 0.64954 mm^2
            Peak Dynamic = 0.177867 W
            Subthreshold Leakage = 0.0811682 W
            Subthreshold Leakage with power gating = 0.0435357 W
            Gate Leakage = 0.00272758 W
            Runtime Dynamic = 0.0426531 W

          Branch Predictor:
            Area = 0.138516 mm^2
            Peak Dynamic = 0.0597838 W
            Subthreshold Leakage = 0.0199703 W
            Subthreshold Leakage with power gating = 0.0103282 W
            Gate Leakage = 0.000757657 W
            Runtime Dynamic = 0.0139247 W

              Global Predictor:
                Area = 0.0435221 mm^2
                Peak Dynamic = 0.0168831 W
                Subthreshold Leakage = 0.00759719 W
                Subthreshold Leakage with power gating = 0.0039236 W
                Gate Leakage = 0.000278362 W
                Runtime Dynamic = 0.00434052 W

              Local Predictor:
              L1_Local Predictor:
                Area = 0.0257064 mm^2
                Peak Dynamic = 0.0142575 W
                Subthreshold Leakage = 0.00384344 W
                Subthreshold Leakage with power gating = 0.00198631 W
                Gate Leakage = 0.000154548 W
                Runtime Dynamic = 0.00375157 W

              L2_Local Predictor:
                Area = 0.0151917 mm^2
                Peak Dynamic = 0.00527447 W
                Subthreshold Leakage = 0.00181347 W
                Subthreshold Leakage with power gating = 0.000957045 W
                Gate Leakage = 8.00196e-05 W
                Runtime Dynamic = 0.00143643 W

              Chooser:
                Area = 0.0435221 mm^2
                Peak Dynamic = 0.0168831 W
                Subthreshold Leakage = 0.00759719 W
                Subthreshold Leakage with power gating = 0.0039236 W
                Gate Leakage = 0.000278362 W
                Runtime Dynamic = 0.00434052 W

              RAS:
                Area = 0.0105732 mm^2
                Peak Dynamic = 0.0117602 W
                Subthreshold Leakage = 0.000932505 W
                Subthreshold Leakage with power gating = 0.000494733 W
                Gate Leakage = 4.63858e-05 W
                Runtime Dynamic = 0.00149207 W

          Instruction Buffer:
            Area = 11.1802 mm^2
            Peak Dynamic = 4028.05 W
            Subthreshold Leakage = 1.03354 W
            Subthreshold Leakage with power gating = 0.389491 W
            Gate Leakage = 0.119458 W
            Runtime Dynamic = 41.4258 W

          Instruction Decoder:
            Area = 29.7278 mm^2
            Peak Dynamic = 21.9846 W
            Subthreshold Leakage = 0.442943 W
            Subthreshold Leakage with power gating = 0.166104 W
            Gate Leakage = 0.0222493 W
            Runtime Dynamic = 0.339145 W

      Renaming Unit:
        Area = 27.8071 mm^2
        Peak Dynamic = 2556.62 W
        Subthreshold Leakage = 0.87819 W
        Subthreshold Leakage with power gating = 0.437089 W
        Gate Leakage = 0.0906085 W
        Runtime Dynamic = 38.3239 W

          Int Front End RAT:
            Area = 19.3301 mm^2
            Peak Dynamic = 2465.83 W
            Subthreshold Leakage = 0.500294 W
            Subthreshold Leakage with power gating = 0.285168 W
            Gate Leakage = 0.0323898 W
            Runtime Dynamic = 37.9438 W

          FP Front End RAT:
            Area = 0.168486 mm^2
            Peak Dynamic = 78.3725 W
            Subthreshold Leakage = 0.0437281 W
            Subthreshold Leakage with power gating = 0.024925 W
            Gate Leakage = 0.00489731 W
            Runtime Dynamic = 0.150442 W

          Free List:
            Area = 7.5975 mm^2
            Peak Dynamic = 7.41375 W
            Subthreshold Leakage = 0.0190978 W
            Subthreshold Leakage with power gating = 0.00884518 W
            Gate Leakage = 0.00102434 W
            Runtime Dynamic = 0.229626 W

      Load Store Unit:
        Area = 9.47562 mm^2
        Peak Dynamic = 8.06271 W
        Subthreshold Leakage = 0.886727 W
        Subthreshold Leakage with power gating = 0.394071 W
        Gate Leakage = 0.0841218 W
        Runtime Dynamic = 2.60517 W

          Data Cache:
            Area = 6.84535 mm^2
            Peak Dynamic = 5.10786 W
            Subthreshold Leakage = 0.527675 W
            Subthreshold Leakage with power gating = 0.25085 W
            Gate Leakage = 0.0279261 W
            Runtime Dynamic = 1.86236 W

          LoadQ:
            Area = 0.0836782 mm^2
            Peak Dynamic = 0.125228 W
            Subthreshold Leakage = 0.00941961 W
            Subthreshold Leakage with power gating = 0.00536918 W
            Gate Leakage = 0.00059896 W
            Runtime Dynamic = 0.125228 W

          StoreQ:
            Area = 0.322079 mm^2
            Peak Dynamic = 0.30879 W
            Subthreshold Leakage = 0.0345621 W
            Subthreshold Leakage with power gating = 0.0197004 W
            Gate Leakage = 0.00329971 W
            Runtime Dynamic = 0.61758 W

      Memory Management Unit:
        Area = 1.10051 mm^2
        Peak Dynamic = 4.26614 W
        Subthreshold Leakage = 0.372016 W
        Subthreshold Leakage with power gating = 0.150611 W
        Gate Leakage = 0.057119 W
        Runtime Dynamic = 0.115415 W

          Itlb:
            Area = 0.301552 mm^2
            Peak Dynamic = 0.394912 W
            Subthreshold Leakage = 0.0413758 W
            Subthreshold Leakage with power gating = 0.0235842 W
            Gate Leakage = 0.00393464 W
            Runtime Dynamic = 0.00564452 W

          Dtlb:
            Area = 0.0879726 mm^2
            Peak Dynamic = 0.10959 W
            Subthreshold Leakage = 0.0155699 W
            Subthreshold Leakage with power gating = 0.00887485 W
            Gate Leakage = 0.00088729 W
            Runtime Dynamic = 0.109764 W

      Execution Unit:
        Area = 1686.67 mm^2
        Peak Dynamic = 202645 W
        Subthreshold Leakage = 70.0229 W
        Subthreshold Leakage with power gating = 29.962 W
        Gate Leakage = 5.03755 W
        Runtime Dynamic = 3180.94 W

          Register Files:
            Area = 111.819 mm^2
            Peak Dynamic = 1.8549 W
            Subthreshold Leakage = 1.55192 W
            Subthreshold Leakage with power gating = 0.587195 W
            Gate Leakage = 0.101689 W
            Runtime Dynamic = 1.55705 W

              Integer RF:
                Area = 74.0344 mm^2
                Peak Dynamic = 1.50957 W
                Subthreshold Leakage = 1.06477 W
                Subthreshold Leakage with power gating = 0.401522 W
                Gate Leakage = 0.0700135 W
                Runtime Dynamic = 1.39185 W

              Floating Point RF:
                Area = 37.7848 mm^2
                Peak Dynamic = 0.345324 W
                Subthreshold Leakage = 0.487147 W
                Subthreshold Leakage with power gating = 0.185673 W
                Gate Leakage = 0.0316755 W
                Runtime Dynamic = 0.165195 W

          Instruction Scheduler:
            Area = 1561.2 mm^2
            Peak Dynamic = 202642 W
            Subthreshold Leakage = 59.5387 W
            Subthreshold Leakage with power gating = 26.0252 W
            Gate Leakage = 4.31521 W
            Runtime Dynamic = 3169.83 W

              Instruction Window:
                Area = 242.241 mm^2
                Peak Dynamic = 491.03 W
                Subthreshold Leakage = 18.7871 W
                Subthreshold Leakage with power gating = 10.7075 W
                Gate Leakage = 1.23925 W
                Runtime Dynamic = 9.78668 W

              FP Instruction Window:
                Area = 0.328073 mm^2
                Peak Dynamic = 2.30959 W
                Subthreshold Leakage = 0.0225127 W
                Subthreshold Leakage with power gating = 0.0116864 W
                Gate Leakage = 0.00181534 W
                Runtime Dynamic = 0.658894 W

              ROB:
                Area = 1318.63 mm^2
                Peak Dynamic = 202149 W
                Subthreshold Leakage = 40.7291 W
                Subthreshold Leakage with power gating = 15.306 W
                Gate Leakage = 3.07414 W
                Runtime Dynamic = 3159.39 W

          Integer ALUs (Count: 96 ):
            Area = 7.53393 mm^2
            Peak Dynamic = 0.365889 W
            Subthreshold Leakage = 6.43552 W
            Subthreshold Leakage with power gating = 2.41332 W
            Gate Leakage = 0.424466 W
            Runtime Dynamic = 0.382048 W

          Floating Point Units (FPUs) (Count: 2 ):
            Area = 4.6585 mm^2
            Peak Dynamic = 0.00971281 W
            Subthreshold Leakage = 0.994829 W
            Subthreshold Leakage with power gating = 0.373061 W
            Gate Leakage = 0.0656156 W
            Runtime Dynamic = 0.308306 W

          Complex ALUs (Mul/Div) (Count: 1 ):
            Area = 0.235435 mm^2
            Peak Dynamic = 0.0012092 W
            Subthreshold Leakage = 0.20111 W
            Subthreshold Leakage with power gating = 0.0754163 W
            Gate Leakage = 0.0132646 W
            Runtime Dynamic = 0.203638 W

          Results Broadcast Bus:
            Area Overhead = 0.510923 mm^2
            Peak Dynamic = 0.262802 W
            Subthreshold Leakage = 0.985661 W
            Subthreshold Leakage with power gating = 0.369623 W
            Gate Leakage = 0.0650109 W
            Runtime Dynamic = 8.65913 W

    L2
    Area = 22.2273 mm^2
    Peak Dynamic = 0.0210462 W
    Subthreshold Leakage = 4.28281 W
    Subthreshold Leakage with power gating = 1.92539 W
    Gate Leakage = 0.0518439 W
    Runtime Dynamic = 0.00305494 W

*****************************************************************************************
Core:
      Area = 1798.95 mm^2
      Peak Dynamic = 209278 W
      Subthreshold Leakage = 80.6998 W
      Subthreshold Leakage with power gating = 34.5279 W
      Gate Leakage = 5.68471 W
      Runtime Dynamic = 3207.93 W

      Instruction Fetch Unit:
        Area = 47.2731 mm^2
        Peak Dynamic = 4064.02 W
        Subthreshold Leakage = 2.37932 W
        Subthreshold Leakage with power gating = 0.95452 W
        Gate Leakage = 0.23961 W
        Runtime Dynamic = 41.1683 W

          Instruction Cache:
            Area = 4.86613 mm^2
            Peak Dynamic = 8.89059 W
            Subthreshold Leakage = 0.486629 W
            Subthreshold Leakage with power gating = 0.22691 W
            Gate Leakage = 0.0421203 W
            Runtime Dynamic = 0.0729421 W

          Branch Target Buffer:
            Area = 0.64954 mm^2
            Peak Dynamic = 0.177867 W
            Subthreshold Leakage = 0.0811682 W
            Subthreshold Leakage with power gating = 0.0435357 W
            Gate Leakage = 0.00272758 W
            Runtime Dynamic = 0.0418913 W

          Branch Predictor:
            Area = 0.138516 mm^2
            Peak Dynamic = 0.0597838 W
            Subthreshold Leakage = 0.0199703 W
            Subthreshold Leakage with power gating = 0.0103282 W
            Gate Leakage = 0.000757657 W
            Runtime Dynamic = 0.0136769 W

              Global Predictor:
                Area = 0.0435221 mm^2
                Peak Dynamic = 0.0168831 W
                Subthreshold Leakage = 0.00759719 W
                Subthreshold Leakage with power gating = 0.0039236 W
                Gate Leakage = 0.000278362 W
                Runtime Dynamic = 0.00426306 W

              Local Predictor:
              L1_Local Predictor:
                Area = 0.0257064 mm^2
                Peak Dynamic = 0.0142575 W
                Subthreshold Leakage = 0.00384344 W
                Subthreshold Leakage with power gating = 0.00198631 W
                Gate Leakage = 0.000154548 W
                Runtime Dynamic = 0.00368464 W

              L2_Local Predictor:
                Area = 0.0151917 mm^2
                Peak Dynamic = 0.00527447 W
                Subthreshold Leakage = 0.00181347 W
                Subthreshold Leakage with power gating = 0.000957045 W
                Gate Leakage = 8.00196e-05 W
                Runtime Dynamic = 0.00141081 W

              Chooser:
                Area = 0.0435221 mm^2
                Peak Dynamic = 0.0168831 W
                Subthreshold Leakage = 0.00759719 W
                Subthreshold Leakage with power gating = 0.0039236 W
                Gate Leakage = 0.000278362 W
                Runtime Dynamic = 0.00426306 W

              RAS:
                Area = 0.0105732 mm^2
                Peak Dynamic = 0.0117602 W
                Subthreshold Leakage = 0.000932505 W
                Subthreshold Leakage with power gating = 0.000494733 W
                Gate Leakage = 4.63858e-05 W
                Runtime Dynamic = 0.00146619 W

          Instruction Buffer:
            Area = 11.1802 mm^2
            Peak Dynamic = 4028.05 W
            Subthreshold Leakage = 1.03354 W
            Subthreshold Leakage with power gating = 0.389491 W
            Gate Leakage = 0.119458 W
            Runtime Dynamic = 40.7065 W

          Instruction Decoder:
            Area = 29.7278 mm^2
            Peak Dynamic = 21.9846 W
            Subthreshold Leakage = 0.442943 W
            Subthreshold Leakage with power gating = 0.166104 W
            Gate Leakage = 0.0222493 W
            Runtime Dynamic = 0.333256 W

      Renaming Unit:
        Area = 27.8071 mm^2
        Peak Dynamic = 2556.62 W
        Subthreshold Leakage = 0.87819 W
        Subthreshold Leakage with power gating = 0.437089 W
        Gate Leakage = 0.0906085 W
        Runtime Dynamic = 37.6611 W

          Int Front End RAT:
            Area = 19.3301 mm^2
            Peak Dynamic = 2465.83 W
            Subthreshold Leakage = 0.500294 W
            Subthreshold Leakage with power gating = 0.285168 W
            Gate Leakage = 0.0323898 W
            Runtime Dynamic = 37.285 W

          FP Front End RAT:
            Area = 0.168486 mm^2
            Peak Dynamic = 78.3725 W
            Subthreshold Leakage = 0.0437281 W
            Subthreshold Leakage with power gating = 0.024925 W
            Gate Leakage = 0.00489731 W
            Runtime Dynamic = 0.150442 W

          Free List:
            Area = 7.5975 mm^2
            Peak Dynamic = 7.41375 W
            Subthreshold Leakage = 0.0190978 W
            Subthreshold Leakage with power gating = 0.00884518 W
            Gate Leakage = 0.00102434 W
            Runtime Dynamic = 0.225654 W

      Load Store Unit:
        Area = 9.47562 mm^2
        Peak Dynamic = 7.94651 W
        Subthreshold Leakage = 0.886727 W
        Subthreshold Leakage with power gating = 0.394071 W
        Gate Leakage = 0.0841218 W
        Runtime Dynamic = 2.56082 W

          Data Cache:
            Area = 6.84535 mm^2
            Peak Dynamic = 5.04196 W
            Subthreshold Leakage = 0.527675 W
            Subthreshold Leakage with power gating = 0.25085 W
            Gate Leakage = 0.0279261 W
            Runtime Dynamic = 1.83066 W

          LoadQ:
            Area = 0.0836782 mm^2
            Peak Dynamic = 0.123096 W
            Subthreshold Leakage = 0.00941961 W
            Subthreshold Leakage with power gating = 0.00536918 W
            Gate Leakage = 0.00059896 W
            Runtime Dynamic = 0.123096 W

          StoreQ:
            Area = 0.322079 mm^2
            Peak Dynamic = 0.303533 W
            Subthreshold Leakage = 0.0345621 W
            Subthreshold Leakage with power gating = 0.0197004 W
            Gate Leakage = 0.00329971 W
            Runtime Dynamic = 0.607066 W

      Memory Management Unit:
        Area = 1.10051 mm^2
        Peak Dynamic = 4.23596 W
        Subthreshold Leakage = 0.372016 W
        Subthreshold Leakage with power gating = 0.150611 W
        Gate Leakage = 0.057119 W
        Runtime Dynamic = 0.113551 W

          Itlb:
            Area = 0.301552 mm^2
            Peak Dynamic = 0.388055 W
            Subthreshold Leakage = 0.0413758 W
            Subthreshold Leakage with power gating = 0.0235842 W
            Gate Leakage = 0.00393464 W
            Runtime Dynamic = 0.00564737 W

          Dtlb:
            Area = 0.0879726 mm^2
            Peak Dynamic = 0.107725 W
            Subthreshold Leakage = 0.0155699 W
            Subthreshold Leakage with power gating = 0.00887485 W
            Gate Leakage = 0.00088729 W
            Runtime Dynamic = 0.107897 W

      Execution Unit:
        Area = 1686.67 mm^2
        Peak Dynamic = 202645 W
        Subthreshold Leakage = 70.0229 W
        Subthreshold Leakage with power gating = 29.962 W
        Gate Leakage = 5.03755 W
        Runtime Dynamic = 3126.42 W

          Register Files:
            Area = 111.819 mm^2
            Peak Dynamic = 1.83134 W
            Subthreshold Leakage = 1.55192 W
            Subthreshold Leakage with power gating = 0.587195 W
            Gate Leakage = 0.101689 W
            Runtime Dynamic = 1.53001 W

              Integer RF:
                Area = 74.0344 mm^2
                Peak Dynamic = 1.48602 W
                Subthreshold Leakage = 1.06477 W
                Subthreshold Leakage with power gating = 0.401522 W
                Gate Leakage = 0.0700135 W
                Runtime Dynamic = 1.36769 W

              Floating Point RF:
                Area = 37.7848 mm^2
                Peak Dynamic = 0.345324 W
                Subthreshold Leakage = 0.487147 W
                Subthreshold Leakage with power gating = 0.185673 W
                Gate Leakage = 0.0316755 W
                Runtime Dynamic = 0.162326 W

          Instruction Scheduler:
            Area = 1561.2 mm^2
            Peak Dynamic = 202642 W
            Subthreshold Leakage = 59.5387 W
            Subthreshold Leakage with power gating = 26.0252 W
            Gate Leakage = 4.31521 W
            Runtime Dynamic = 3115.49 W

              Instruction Window:
                Area = 242.241 mm^2
                Peak Dynamic = 491.03 W
                Subthreshold Leakage = 18.7871 W
                Subthreshold Leakage with power gating = 10.7075 W
                Gate Leakage = 1.23925 W
                Runtime Dynamic = 9.61674 W

              FP Instruction Window:
                Area = 0.328073 mm^2
                Peak Dynamic = 2.30959 W
                Subthreshold Leakage = 0.0225127 W
                Subthreshold Leakage with power gating = 0.0116864 W
                Gate Leakage = 0.00181534 W
                Runtime Dynamic = 0.647454 W

              ROB:
                Area = 1318.63 mm^2
                Peak Dynamic = 202149 W
                Subthreshold Leakage = 40.7291 W
                Subthreshold Leakage with power gating = 15.306 W
                Gate Leakage = 3.07414 W
                Runtime Dynamic = 3105.22 W

          Integer ALUs (Count: 96 ):
            Area = 7.53393 mm^2
            Peak Dynamic = 0.359531 W
            Subthreshold Leakage = 6.43552 W
            Subthreshold Leakage with power gating = 2.41332 W
            Gate Leakage = 0.424466 W
            Runtime Dynamic = 0.377275 W

          Floating Point Units (FPUs) (Count: 2 ):
            Area = 4.6585 mm^2
            Peak Dynamic = 0.00971281 W
            Subthreshold Leakage = 0.994829 W
            Subthreshold Leakage with power gating = 0.373061 W
            Gate Leakage = 0.0656156 W
            Runtime Dynamic = 0.308306 W

          Complex ALUs (Mul/Div) (Count: 1 ):
            Area = 0.235435 mm^2
            Peak Dynamic = 0.0012092 W
            Subthreshold Leakage = 0.20111 W
            Subthreshold Leakage with power gating = 0.0754163 W
            Gate Leakage = 0.0132646 W
            Runtime Dynamic = 0.203638 W

          Results Broadcast Bus:
            Area Overhead = 0.510923 mm^2
            Peak Dynamic = 0.258745 W
            Subthreshold Leakage = 0.985661 W
            Subthreshold Leakage with power gating = 0.369623 W
            Gate Leakage = 0.0650109 W
            Runtime Dynamic = 8.51253 W

    L2
    Area = 22.2273 mm^2
    Peak Dynamic = 0.0208901 W
    Subthreshold Leakage = 4.28281 W
    Subthreshold Leakage with power gating = 1.92539 W
    Gate Leakage = 0.0518439 W
    Runtime Dynamic = 0.00301434 W

*****************************************************************************************
Core:
      Area = 1798.95 mm^2
      Peak Dynamic = 209279 W
      Subthreshold Leakage = 80.6998 W
      Subthreshold Leakage with power gating = 34.5279 W
      Gate Leakage = 5.68471 W
      Runtime Dynamic = 3493.7 W

      Instruction Fetch Unit:
        Area = 47.2731 mm^2
        Peak Dynamic = 4064.44 W
        Subthreshold Leakage = 2.37932 W
        Subthreshold Leakage with power gating = 0.95452 W
        Gate Leakage = 0.23961 W
        Runtime Dynamic = 44.8781 W

          Instruction Cache:
            Area = 4.86613 mm^2
            Peak Dynamic = 9.16413 W
            Subthreshold Leakage = 0.486629 W
            Subthreshold Leakage with power gating = 0.22691 W
            Gate Leakage = 0.0421203 W
            Runtime Dynamic = 0.0728561 W

          Branch Target Buffer:
            Area = 0.64954 mm^2
            Peak Dynamic = 0.177867 W
            Subthreshold Leakage = 0.0811682 W
            Subthreshold Leakage with power gating = 0.0435357 W
            Gate Leakage = 0.00272758 W
            Runtime Dynamic = 0.0457865 W

          Branch Predictor:
            Area = 0.138516 mm^2
            Peak Dynamic = 0.0597838 W
            Subthreshold Leakage = 0.0199703 W
            Subthreshold Leakage with power gating = 0.0103282 W
            Gate Leakage = 0.000757657 W
            Runtime Dynamic = 0.0149436 W

              Global Predictor:
                Area = 0.0435221 mm^2
                Peak Dynamic = 0.0168831 W
                Subthreshold Leakage = 0.00759719 W
                Subthreshold Leakage with power gating = 0.0039236 W
                Gate Leakage = 0.000278362 W
                Runtime Dynamic = 0.00465911 W

              Local Predictor:
              L1_Local Predictor:
                Area = 0.0257064 mm^2
                Peak Dynamic = 0.0142575 W
                Subthreshold Leakage = 0.00384344 W
                Subthreshold Leakage with power gating = 0.00198631 W
                Gate Leakage = 0.000154548 W
                Runtime Dynamic = 0.00402686 W

              L2_Local Predictor:
                Area = 0.0151917 mm^2
                Peak Dynamic = 0.00527447 W
                Subthreshold Leakage = 0.00181347 W
                Subthreshold Leakage with power gating = 0.000957045 W
                Gate Leakage = 8.00196e-05 W
                Runtime Dynamic = 0.00154179 W

              Chooser:
                Area = 0.0435221 mm^2
                Peak Dynamic = 0.0168831 W
                Subthreshold Leakage = 0.00759719 W
                Subthreshold Leakage with power gating = 0.0039236 W
                Gate Leakage = 0.000278362 W
                Runtime Dynamic = 0.00465911 W

              RAS:
                Area = 0.0105732 mm^2
                Peak Dynamic = 0.0117602 W
                Subthreshold Leakage = 0.000932505 W
                Subthreshold Leakage with power gating = 0.000494733 W
                Gate Leakage = 4.63858e-05 W
                Runtime Dynamic = 0.00159852 W

          Instruction Buffer:
            Area = 11.1802 mm^2
            Peak Dynamic = 4028.05 W
            Subthreshold Leakage = 1.03354 W
            Subthreshold Leakage with power gating = 0.389491 W
            Gate Leakage = 0.119458 W
            Runtime Dynamic = 44.3812 W

          Instruction Decoder:
            Area = 29.7278 mm^2
            Peak Dynamic = 21.9846 W
            Subthreshold Leakage = 0.442943 W
            Subthreshold Leakage with power gating = 0.166104 W
            Gate Leakage = 0.0222493 W
            Runtime Dynamic = 0.36334 W

      Renaming Unit:
        Area = 27.8071 mm^2
        Peak Dynamic = 2556.62 W
        Subthreshold Leakage = 0.87819 W
        Subthreshold Leakage with power gating = 0.437089 W
        Gate Leakage = 0.0906085 W
        Runtime Dynamic = 41.0471 W

          Int Front End RAT:
            Area = 19.3301 mm^2
            Peak Dynamic = 2465.83 W
            Subthreshold Leakage = 0.500294 W
            Subthreshold Leakage with power gating = 0.285168 W
            Gate Leakage = 0.0323898 W
            Runtime Dynamic = 40.6507 W

          FP Front End RAT:
            Area = 0.168486 mm^2
            Peak Dynamic = 78.3725 W
            Subthreshold Leakage = 0.0437281 W
            Subthreshold Leakage with power gating = 0.024925 W
            Gate Leakage = 0.00489731 W
            Runtime Dynamic = 0.150442 W

          Free List:
            Area = 7.5975 mm^2
            Peak Dynamic = 7.41375 W
            Subthreshold Leakage = 0.0190978 W
            Subthreshold Leakage with power gating = 0.00884518 W
            Gate Leakage = 0.00102434 W
            Runtime Dynamic = 0.245944 W

      Load Store Unit:
        Area = 9.47562 mm^2
        Peak Dynamic = 8.53994 W
        Subthreshold Leakage = 0.886727 W
        Subthreshold Leakage with power gating = 0.394071 W
        Gate Leakage = 0.0841218 W
        Runtime Dynamic = 2.78705 W

          Data Cache:
            Area = 6.84535 mm^2
            Peak Dynamic = 5.37849 W
            Subthreshold Leakage = 0.527675 W
            Subthreshold Leakage with power gating = 0.25085 W
            Gate Leakage = 0.0279261 W
            Runtime Dynamic = 1.9923 W

          LoadQ:
            Area = 0.0836782 mm^2
            Peak Dynamic = 0.133983 W
            Subthreshold Leakage = 0.00941961 W
            Subthreshold Leakage with power gating = 0.00536918 W
            Gate Leakage = 0.00059896 W
            Runtime Dynamic = 0.133983 W

          StoreQ:
            Area = 0.322079 mm^2
            Peak Dynamic = 0.33038 W
            Subthreshold Leakage = 0.0345621 W
            Subthreshold Leakage with power gating = 0.0197004 W
            Gate Leakage = 0.00329971 W
            Runtime Dynamic = 0.66076 W

      Memory Management Unit:
        Area = 1.10051 mm^2
        Peak Dynamic = 4.36701 W
        Subthreshold Leakage = 0.372016 W
        Subthreshold Leakage with power gating = 0.150611 W
        Gate Leakage = 0.057119 W
        Runtime Dynamic = 0.123078 W

          Itlb:
            Area = 0.301552 mm^2
            Peak Dynamic = 0.399995 W
            Subthreshold Leakage = 0.0413758 W
            Subthreshold Leakage with power gating = 0.0235842 W
            Gate Leakage = 0.00393464 W
            Runtime Dynamic = 0.00564014 W

          Dtlb:
            Area = 0.0879726 mm^2
            Peak Dynamic = 0.117253 W
            Subthreshold Leakage = 0.0155699 W
            Subthreshold Leakage with power gating = 0.00887485 W
            Gate Leakage = 0.00088729 W
            Runtime Dynamic = 0.117431 W

      Execution Unit:
        Area = 1686.67 mm^2
        Peak Dynamic = 202645 W
        Subthreshold Leakage = 70.0229 W
        Subthreshold Leakage with power gating = 29.962 W
        Gate Leakage = 5.03755 W
        Runtime Dynamic = 3404.86 W

          Register Files:
            Area = 111.819 mm^2
            Peak Dynamic = 1.95203 W
            Subthreshold Leakage = 1.55192 W
            Subthreshold Leakage with power gating = 0.587195 W
            Gate Leakage = 0.101689 W
            Runtime Dynamic = 1.66813 W

              Integer RF:
                Area = 74.0344 mm^2
                Peak Dynamic = 1.6067 W
                Subthreshold Leakage = 1.06477 W
                Subthreshold Leakage with power gating = 0.401522 W
                Gate Leakage = 0.0700135 W
                Runtime Dynamic = 1.49115 W

              Floating Point RF:
                Area = 37.7848 mm^2
                Peak Dynamic = 0.345324 W
                Subthreshold Leakage = 0.487147 W
                Subthreshold Leakage with power gating = 0.185673 W
                Gate Leakage = 0.0316755 W
                Runtime Dynamic = 0.17698 W

          Instruction Scheduler:
            Area = 1561.2 mm^2
            Peak Dynamic = 202642 W
            Subthreshold Leakage = 59.5387 W
            Subthreshold Leakage with power gating = 26.0252 W
            Gate Leakage = 4.31521 W
            Runtime Dynamic = 3393.02 W

              Instruction Window:
                Area = 242.241 mm^2
                Peak Dynamic = 491.03 W
                Subthreshold Leakage = 18.7871 W
                Subthreshold Leakage with power gating = 10.7075 W
                Gate Leakage = 1.23925 W
                Runtime Dynamic = 10.4849 W

              FP Instruction Window:
                Area = 0.328073 mm^2
                Peak Dynamic = 2.30959 W
                Subthreshold Leakage = 0.0225127 W
                Subthreshold Leakage with power gating = 0.0116864 W
                Gate Leakage = 0.00181534 W
                Runtime Dynamic = 0.705901 W

              ROB:
                Area = 1318.63 mm^2
                Peak Dynamic = 202149 W
                Subthreshold Leakage = 40.7291 W
                Subthreshold Leakage with power gating = 15.306 W
                Gate Leakage = 3.07414 W
                Runtime Dynamic = 3381.83 W

          Integer ALUs (Count: 96 ):
            Area = 7.53393 mm^2
            Peak Dynamic = 0.392106 W
            Subthreshold Leakage = 6.43552 W
            Subthreshold Leakage with power gating = 2.41332 W
            Gate Leakage = 0.424466 W
            Runtime Dynamic = 0.40164 W

          Floating Point Units (FPUs) (Count: 2 ):
            Area = 4.6585 mm^2
            Peak Dynamic = 0.00971281 W
            Subthreshold Leakage = 0.994829 W
            Subthreshold Leakage with power gating = 0.373061 W
            Gate Leakage = 0.0656156 W
            Runtime Dynamic = 0.308306 W

          Complex ALUs (Mul/Div) (Count: 1 ):
            Area = 0.235435 mm^2
            Peak Dynamic = 0.0012092 W
            Subthreshold Leakage = 0.20111 W
            Subthreshold Leakage with power gating = 0.0754163 W
            Gate Leakage = 0.0132646 W
            Runtime Dynamic = 0.203638 W

          Results Broadcast Bus:
            Area Overhead = 0.510923 mm^2
            Peak Dynamic = 0.27953 W
            Subthreshold Leakage = 0.985661 W
            Subthreshold Leakage with power gating = 0.369623 W
            Gate Leakage = 0.0650109 W
            Runtime Dynamic = 9.2609 W

    L2
    Area = 22.2273 mm^2
    Peak Dynamic = 0.0215972 W
    Subthreshold Leakage = 4.28281 W
    Subthreshold Leakage with power gating = 1.92539 W
    Gate Leakage = 0.0518439 W
    Runtime Dynamic = 0.00293049 W

*****************************************************************************************
Core:
      Area = 1798.95 mm^2
      Peak Dynamic = 209279 W
      Subthreshold Leakage = 80.6998 W
      Subthreshold Leakage with power gating = 34.5279 W
      Gate Leakage = 5.68471 W
      Runtime Dynamic = 3460.2 W

      Instruction Fetch Unit:
        Area = 47.2731 mm^2
        Peak Dynamic = 4064.44 W
        Subthreshold Leakage = 2.37932 W
        Subthreshold Leakage with power gating = 0.95452 W
        Gate Leakage = 0.23961 W
        Runtime Dynamic = 44.4433 W

          Instruction Cache:
            Area = 4.86613 mm^2
            Peak Dynamic = 9.16413 W
            Subthreshold Leakage = 0.486629 W
            Subthreshold Leakage with power gating = 0.22691 W
            Gate Leakage = 0.0421203 W
            Runtime Dynamic = 0.0728693 W

          Branch Target Buffer:
            Area = 0.64954 mm^2
            Peak Dynamic = 0.177867 W
            Subthreshold Leakage = 0.0811682 W
            Subthreshold Leakage with power gating = 0.0435357 W
            Gate Leakage = 0.00272758 W
            Runtime Dynamic = 0.0453306 W

          Branch Predictor:
            Area = 0.138516 mm^2
            Peak Dynamic = 0.0597838 W
            Subthreshold Leakage = 0.0199703 W
            Subthreshold Leakage with power gating = 0.0103282 W
            Gate Leakage = 0.000757657 W
            Runtime Dynamic = 0.0147956 W

              Global Predictor:
                Area = 0.0435221 mm^2
                Peak Dynamic = 0.0168831 W
                Subthreshold Leakage = 0.00759719 W
                Subthreshold Leakage with power gating = 0.0039236 W
                Gate Leakage = 0.000278362 W
                Runtime Dynamic = 0.00461284 W

              Local Predictor:
              L1_Local Predictor:
                Area = 0.0257064 mm^2
                Peak Dynamic = 0.0142575 W
                Subthreshold Leakage = 0.00384344 W
                Subthreshold Leakage with power gating = 0.00198631 W
                Gate Leakage = 0.000154548 W
                Runtime Dynamic = 0.00398691 W

              L2_Local Predictor:
                Area = 0.0151917 mm^2
                Peak Dynamic = 0.00527447 W
                Subthreshold Leakage = 0.00181347 W
                Subthreshold Leakage with power gating = 0.000957045 W
                Gate Leakage = 8.00196e-05 W
                Runtime Dynamic = 0.00152651 W

              Chooser:
                Area = 0.0435221 mm^2
                Peak Dynamic = 0.0168831 W
                Subthreshold Leakage = 0.00759719 W
                Subthreshold Leakage with power gating = 0.0039236 W
                Gate Leakage = 0.000278362 W
                Runtime Dynamic = 0.00461284 W

              RAS:
                Area = 0.0105732 mm^2
                Peak Dynamic = 0.0117602 W
                Subthreshold Leakage = 0.000932505 W
                Subthreshold Leakage with power gating = 0.000494733 W
                Gate Leakage = 4.63858e-05 W
                Runtime Dynamic = 0.00158301 W

          Instruction Buffer:
            Area = 11.1802 mm^2
            Peak Dynamic = 4028.05 W
            Subthreshold Leakage = 1.03354 W
            Subthreshold Leakage with power gating = 0.389491 W
            Gate Leakage = 0.119458 W
            Runtime Dynamic = 43.9505 W

          Instruction Decoder:
            Area = 29.7278 mm^2
            Peak Dynamic = 21.9846 W
            Subthreshold Leakage = 0.442943 W
            Subthreshold Leakage with power gating = 0.166104 W
            Gate Leakage = 0.0222493 W
            Runtime Dynamic = 0.359814 W

      Renaming Unit:
        Area = 27.8071 mm^2
        Peak Dynamic = 2556.62 W
        Subthreshold Leakage = 0.87819 W
        Subthreshold Leakage with power gating = 0.437089 W
        Gate Leakage = 0.0906085 W
        Runtime Dynamic = 40.6502 W

          Int Front End RAT:
            Area = 19.3301 mm^2
            Peak Dynamic = 2465.83 W
            Subthreshold Leakage = 0.500294 W
            Subthreshold Leakage with power gating = 0.285168 W
            Gate Leakage = 0.0323898 W
            Runtime Dynamic = 40.2561 W

          FP Front End RAT:
            Area = 0.168486 mm^2
            Peak Dynamic = 78.3725 W
            Subthreshold Leakage = 0.0437281 W
            Subthreshold Leakage with power gating = 0.024925 W
            Gate Leakage = 0.00489731 W
            Runtime Dynamic = 0.150442 W

          Free List:
            Area = 7.5975 mm^2
            Peak Dynamic = 7.41375 W
            Subthreshold Leakage = 0.0190978 W
            Subthreshold Leakage with power gating = 0.00884518 W
            Gate Leakage = 0.00102434 W
            Runtime Dynamic = 0.243566 W

      Load Store Unit:
        Area = 9.47562 mm^2
        Peak Dynamic = 8.47044 W
        Subthreshold Leakage = 0.886727 W
        Subthreshold Leakage with power gating = 0.394071 W
        Gate Leakage = 0.0841218 W
        Runtime Dynamic = 2.76045 W

          Data Cache:
            Area = 6.84535 mm^2
            Peak Dynamic = 5.33908 W
            Subthreshold Leakage = 0.527675 W
            Subthreshold Leakage with power gating = 0.25085 W
            Gate Leakage = 0.0279261 W
            Runtime Dynamic = 1.97326 W

          LoadQ:
            Area = 0.0836782 mm^2
            Peak Dynamic = 0.132708 W
            Subthreshold Leakage = 0.00941961 W
            Subthreshold Leakage with power gating = 0.00536918 W
            Gate Leakage = 0.00059896 W
            Runtime Dynamic = 0.132708 W

          StoreQ:
            Area = 0.322079 mm^2
            Peak Dynamic = 0.327235 W
            Subthreshold Leakage = 0.0345621 W
            Subthreshold Leakage with power gating = 0.0197004 W
            Gate Leakage = 0.00329971 W
            Runtime Dynamic = 0.654471 W

      Memory Management Unit:
        Area = 1.10051 mm^2
        Peak Dynamic = 4.35306 W
        Subthreshold Leakage = 0.372016 W
        Subthreshold Leakage with power gating = 0.150611 W
        Gate Leakage = 0.057119 W
        Runtime Dynamic = 0.121968 W

          Itlb:
            Area = 0.301552 mm^2
            Peak Dynamic = 0.399995 W
            Subthreshold Leakage = 0.0413758 W
            Subthreshold Leakage with power gating = 0.0235842 W
            Gate Leakage = 0.00393464 W
            Runtime Dynamic = 0.00564145 W

          Dtlb:
            Area = 0.0879726 mm^2
            Peak Dynamic = 0.116137 W
            Subthreshold Leakage = 0.0155699 W
            Subthreshold Leakage with power gating = 0.00887485 W
            Gate Leakage = 0.00088729 W
            Runtime Dynamic = 0.11632 W

      Execution Unit:
        Area = 1686.67 mm^2
        Peak Dynamic = 202645 W
        Subthreshold Leakage = 70.0229 W
        Subthreshold Leakage with power gating = 29.962 W
        Gate Leakage = 5.03755 W
        Runtime Dynamic = 3372.22 W

          Register Files:
            Area = 111.819 mm^2
            Peak Dynamic = 1.93787 W
            Subthreshold Leakage = 1.55192 W
            Subthreshold Leakage with power gating = 0.587195 W
            Gate Leakage = 0.101689 W
            Runtime Dynamic = 1.65194 W

              Integer RF:
                Area = 74.0344 mm^2
                Peak Dynamic = 1.59254 W
                Subthreshold Leakage = 1.06477 W
                Subthreshold Leakage with power gating = 0.401522 W
                Gate Leakage = 0.0700135 W
                Runtime Dynamic = 1.47668 W

              Floating Point RF:
                Area = 37.7848 mm^2
                Peak Dynamic = 0.345324 W
                Subthreshold Leakage = 0.487147 W
                Subthreshold Leakage with power gating = 0.185673 W
                Gate Leakage = 0.0316755 W
                Runtime Dynamic = 0.175262 W

          Instruction Scheduler:
            Area = 1561.2 mm^2
            Peak Dynamic = 202642 W
            Subthreshold Leakage = 59.5387 W
            Subthreshold Leakage with power gating = 26.0252 W
            Gate Leakage = 4.31521 W
            Runtime Dynamic = 3360.49 W

              Instruction Window:
                Area = 242.241 mm^2
                Peak Dynamic = 491.03 W
                Subthreshold Leakage = 18.7871 W
                Subthreshold Leakage with power gating = 10.7075 W
                Gate Leakage = 1.23925 W
                Runtime Dynamic = 10.3831 W

              FP Instruction Window:
                Area = 0.328073 mm^2
                Peak Dynamic = 2.30959 W
                Subthreshold Leakage = 0.0225127 W
                Subthreshold Leakage with power gating = 0.0116864 W
                Gate Leakage = 0.00181534 W
                Runtime Dynamic = 0.69905 W

              ROB:
                Area = 1318.63 mm^2
                Peak Dynamic = 202149 W
                Subthreshold Leakage = 40.7291 W
                Subthreshold Leakage with power gating = 15.306 W
                Gate Leakage = 3.07414 W
                Runtime Dynamic = 3349.41 W

          Integer ALUs (Count: 96 ):
            Area = 7.53393 mm^2
            Peak Dynamic = 0.388284 W
            Subthreshold Leakage = 6.43552 W
            Subthreshold Leakage with power gating = 2.41332 W
            Gate Leakage = 0.424466 W
            Runtime Dynamic = 0.398783 W

          Floating Point Units (FPUs) (Count: 2 ):
            Area = 4.6585 mm^2
            Peak Dynamic = 0.00971281 W
            Subthreshold Leakage = 0.994829 W
            Subthreshold Leakage with power gating = 0.373061 W
            Gate Leakage = 0.0656156 W
            Runtime Dynamic = 0.308306 W

          Complex ALUs (Mul/Div) (Count: 1 ):
            Area = 0.235435 mm^2
            Peak Dynamic = 0.0012092 W
            Subthreshold Leakage = 0.20111 W
            Subthreshold Leakage with power gating = 0.0754163 W
            Gate Leakage = 0.0132646 W
            Runtime Dynamic = 0.203638 W

          Results Broadcast Bus:
            Area Overhead = 0.510923 mm^2
            Peak Dynamic = 0.277092 W
            Subthreshold Leakage = 0.985661 W
            Subthreshold Leakage with power gating = 0.369623 W
            Gate Leakage = 0.0650109 W
            Runtime Dynamic = 9.17314 W

    L2
    Area = 22.2273 mm^2
    Peak Dynamic = 0.0221389 W
    Subthreshold Leakage = 4.28281 W
    Subthreshold Leakage with power gating = 1.92539 W
    Gate Leakage = 0.0518439 W
    Runtime Dynamic = 0.00283194 W

*****************************************************************************************
Core:
      Area = 1798.95 mm^2
      Peak Dynamic = 209279 W
      Subthreshold Leakage = 80.6998 W
      Subthreshold Leakage with power gating = 34.5279 W
      Gate Leakage = 5.68471 W
      Runtime Dynamic = 3489.82 W

      Instruction Fetch Unit:
        Area = 47.2731 mm^2
        Peak Dynamic = 4064.44 W
        Subthreshold Leakage = 2.37932 W
        Subthreshold Leakage with power gating = 0.95452 W
        Gate Leakage = 0.23961 W
        Runtime Dynamic = 44.8272 W

          Instruction Cache:
            Area = 4.86613 mm^2
            Peak Dynamic = 9.16413 W
            Subthreshold Leakage = 0.486629 W
            Subthreshold Leakage with power gating = 0.22691 W
            Gate Leakage = 0.0421203 W
            Runtime Dynamic = 0.0729355 W

          Branch Target Buffer:
            Area = 0.64954 mm^2
            Peak Dynamic = 0.177867 W
            Subthreshold Leakage = 0.0811682 W
            Subthreshold Leakage with power gating = 0.0435357 W
            Gate Leakage = 0.00272758 W
            Runtime Dynamic = 0.0457326 W

          Branch Predictor:
            Area = 0.138516 mm^2
            Peak Dynamic = 0.0597838 W
            Subthreshold Leakage = 0.0199703 W
            Subthreshold Leakage with power gating = 0.0103282 W
            Gate Leakage = 0.000757657 W
            Runtime Dynamic = 0.0149263 W

              Global Predictor:
                Area = 0.0435221 mm^2
                Peak Dynamic = 0.0168831 W
                Subthreshold Leakage = 0.00759719 W
                Subthreshold Leakage with power gating = 0.0039236 W
                Gate Leakage = 0.000278362 W
                Runtime Dynamic = 0.0046537 W

              Local Predictor:
              L1_Local Predictor:
                Area = 0.0257064 mm^2
                Peak Dynamic = 0.0142575 W
                Subthreshold Leakage = 0.00384344 W
                Subthreshold Leakage with power gating = 0.00198631 W
                Gate Leakage = 0.000154548 W
                Runtime Dynamic = 0.0040222 W

              L2_Local Predictor:
                Area = 0.0151917 mm^2
                Peak Dynamic = 0.00527447 W
                Subthreshold Leakage = 0.00181347 W
                Subthreshold Leakage with power gating = 0.000957045 W
                Gate Leakage = 8.00196e-05 W
                Runtime Dynamic = 0.00154002 W

              Chooser:
                Area = 0.0435221 mm^2
                Peak Dynamic = 0.0168831 W
                Subthreshold Leakage = 0.00759719 W
                Subthreshold Leakage with power gating = 0.0039236 W
                Gate Leakage = 0.000278362 W
                Runtime Dynamic = 0.0046537 W

              RAS:
                Area = 0.0105732 mm^2
                Peak Dynamic = 0.0117602 W
                Subthreshold Leakage = 0.000932505 W
                Subthreshold Leakage with power gating = 0.000494733 W
                Gate Leakage = 4.63858e-05 W
                Runtime Dynamic = 0.0015967 W

          Instruction Buffer:
            Area = 11.1802 mm^2
            Peak Dynamic = 4028.05 W
            Subthreshold Leakage = 1.03354 W
            Subthreshold Leakage with power gating = 0.389491 W
            Gate Leakage = 0.119458 W
            Runtime Dynamic = 44.3307 W

          Instruction Decoder:
            Area = 29.7278 mm^2
            Peak Dynamic = 21.9846 W
            Subthreshold Leakage = 0.442943 W
            Subthreshold Leakage with power gating = 0.166104 W
            Gate Leakage = 0.0222493 W
            Runtime Dynamic = 0.362927 W

      Renaming Unit:
        Area = 27.8071 mm^2
        Peak Dynamic = 2556.62 W
        Subthreshold Leakage = 0.87819 W
        Subthreshold Leakage with power gating = 0.437089 W
        Gate Leakage = 0.0906085 W
        Runtime Dynamic = 41.0005 W

          Int Front End RAT:
            Area = 19.3301 mm^2
            Peak Dynamic = 2465.83 W
            Subthreshold Leakage = 0.500294 W
            Subthreshold Leakage with power gating = 0.285168 W
            Gate Leakage = 0.0323898 W
            Runtime Dynamic = 40.6044 W

          FP Front End RAT:
            Area = 0.168486 mm^2
            Peak Dynamic = 78.3725 W
            Subthreshold Leakage = 0.0437281 W
            Subthreshold Leakage with power gating = 0.024925 W
            Gate Leakage = 0.00489731 W
            Runtime Dynamic = 0.150442 W

          Free List:
            Area = 7.5975 mm^2
            Peak Dynamic = 7.41375 W
            Subthreshold Leakage = 0.0190978 W
            Subthreshold Leakage with power gating = 0.00884518 W
            Gate Leakage = 0.00102434 W
            Runtime Dynamic = 0.245665 W

      Load Store Unit:
        Area = 9.47562 mm^2
        Peak Dynamic = 8.53157 W
        Subthreshold Leakage = 0.886727 W
        Subthreshold Leakage with power gating = 0.394071 W
        Gate Leakage = 0.0841218 W
        Runtime Dynamic = 2.78369 W

          Data Cache:
            Area = 6.84535 mm^2
            Peak Dynamic = 5.37374 W
            Subthreshold Leakage = 0.527675 W
            Subthreshold Leakage with power gating = 0.25085 W
            Gate Leakage = 0.0279261 W
            Runtime Dynamic = 1.98986 W

          LoadQ:
            Area = 0.0836782 mm^2
            Peak Dynamic = 0.13383 W
            Subthreshold Leakage = 0.00941961 W
            Subthreshold Leakage with power gating = 0.00536918 W
            Gate Leakage = 0.00059896 W
            Runtime Dynamic = 0.13383 W

          StoreQ:
            Area = 0.322079 mm^2
            Peak Dynamic = 0.330001 W
            Subthreshold Leakage = 0.0345621 W
            Subthreshold Leakage with power gating = 0.0197004 W
            Gate Leakage = 0.00329971 W
            Runtime Dynamic = 0.660002 W

      Memory Management Unit:
        Area = 1.10051 mm^2
        Peak Dynamic = 4.36533 W
        Subthreshold Leakage = 0.372016 W
        Subthreshold Leakage with power gating = 0.150611 W
        Gate Leakage = 0.057119 W
        Runtime Dynamic = 0.122951 W

          Itlb:
            Area = 0.301552 mm^2
            Peak Dynamic = 0.399995 W
            Subthreshold Leakage = 0.0413758 W
            Subthreshold Leakage with power gating = 0.0235842 W
            Gate Leakage = 0.00393464 W
            Runtime Dynamic = 0.00564686 W

          Dtlb:
            Area = 0.0879726 mm^2
            Peak Dynamic = 0.117118 W
            Subthreshold Leakage = 0.0155699 W
            Subthreshold Leakage with power gating = 0.00887485 W
            Gate Leakage = 0.00088729 W
            Runtime Dynamic = 0.117297 W

      Execution Unit:
        Area = 1686.67 mm^2
        Peak Dynamic = 202645 W
        Subthreshold Leakage = 70.0229 W
        Subthreshold Leakage with power gating = 29.962 W
        Gate Leakage = 5.03755 W
        Runtime Dynamic = 3401.08 W

          Register Files:
            Area = 111.819 mm^2
            Peak Dynamic = 1.95031 W
            Subthreshold Leakage = 1.55192 W
            Subthreshold Leakage with power gating = 0.587195 W
            Gate Leakage = 0.101689 W
            Runtime Dynamic = 1.66623 W

              Integer RF:
                Area = 74.0344 mm^2
                Peak Dynamic = 1.60498 W
                Subthreshold Leakage = 1.06477 W
                Subthreshold Leakage with power gating = 0.401522 W
                Gate Leakage = 0.0700135 W
                Runtime Dynamic = 1.48945 W

              Floating Point RF:
                Area = 37.7848 mm^2
                Peak Dynamic = 0.345324 W
                Subthreshold Leakage = 0.487147 W
                Subthreshold Leakage with power gating = 0.185673 W
                Gate Leakage = 0.0316755 W
                Runtime Dynamic = 0.176778 W

          Instruction Scheduler:
            Area = 1561.2 mm^2
            Peak Dynamic = 202642 W
            Subthreshold Leakage = 59.5387 W
            Subthreshold Leakage with power gating = 26.0252 W
            Gate Leakage = 4.31521 W
            Runtime Dynamic = 3389.25 W

              Instruction Window:
                Area = 242.241 mm^2
                Peak Dynamic = 491.03 W
                Subthreshold Leakage = 18.7871 W
                Subthreshold Leakage with power gating = 10.7075 W
                Gate Leakage = 1.23925 W
                Runtime Dynamic = 10.4729 W

              FP Instruction Window:
                Area = 0.328073 mm^2
                Peak Dynamic = 2.30959 W
                Subthreshold Leakage = 0.0225127 W
                Subthreshold Leakage with power gating = 0.0116864 W
                Gate Leakage = 0.00181534 W
                Runtime Dynamic = 0.705097 W

              ROB:
                Area = 1318.63 mm^2
                Peak Dynamic = 202149 W
                Subthreshold Leakage = 40.7291 W
                Subthreshold Leakage with power gating = 15.306 W
                Gate Leakage = 3.07414 W
                Runtime Dynamic = 3378.08 W

          Integer ALUs (Count: 96 ):
            Area = 7.53393 mm^2
            Peak Dynamic = 0.391641 W
            Subthreshold Leakage = 6.43552 W
            Subthreshold Leakage with power gating = 2.41332 W
            Gate Leakage = 0.424466 W
            Runtime Dynamic = 0.401312 W

          Floating Point Units (FPUs) (Count: 2 ):
            Area = 4.6585 mm^2
            Peak Dynamic = 0.00971281 W
            Subthreshold Leakage = 0.994829 W
            Subthreshold Leakage with power gating = 0.373061 W
            Gate Leakage = 0.0656156 W
            Runtime Dynamic = 0.308306 W

          Complex ALUs (Mul/Div) (Count: 1 ):
            Area = 0.235435 mm^2
            Peak Dynamic = 0.0012092 W
            Subthreshold Leakage = 0.20111 W
            Subthreshold Leakage with power gating = 0.0754163 W
            Gate Leakage = 0.0132646 W
            Runtime Dynamic = 0.203638 W

          Results Broadcast Bus:
            Area Overhead = 0.510923 mm^2
            Peak Dynamic = 0.279234 W
            Subthreshold Leakage = 0.985661 W
            Subthreshold Leakage with power gating = 0.369623 W
            Gate Leakage = 0.0650109 W
            Runtime Dynamic = 9.25083 W

    L2
    Area = 22.2273 mm^2
    Peak Dynamic = 0.021689 W
    Subthreshold Leakage = 4.28281 W
    Subthreshold Leakage with power gating = 1.92539 W
    Gate Leakage = 0.0518439 W
    Runtime Dynamic = 0.00274929 W

*****************************************************************************************
Core:
      Area = 1798.95 mm^2
      Peak Dynamic = 209278 W
      Subthreshold Leakage = 80.6998 W
      Subthreshold Leakage with power gating = 34.5279 W
      Gate Leakage = 5.68471 W
      Runtime Dynamic = 3297.17 W

      Instruction Fetch Unit:
        Area = 47.2731 mm^2
        Peak Dynamic = 4064.41 W
        Subthreshold Leakage = 2.37932 W
        Subthreshold Leakage with power gating = 0.95452 W
        Gate Leakage = 0.23961 W
        Runtime Dynamic = 42.3269 W

          Instruction Cache:
            Area = 4.86613 mm^2
            Peak Dynamic = 9.14126 W
            Subthreshold Leakage = 0.486629 W
            Subthreshold Leakage with power gating = 0.22691 W
            Gate Leakage = 0.0421203 W
            Runtime Dynamic = 0.0728693 W

          Branch Target Buffer:
            Area = 0.64954 mm^2
            Peak Dynamic = 0.177867 W
            Subthreshold Leakage = 0.0811682 W
            Subthreshold Leakage with power gating = 0.0435357 W
            Gate Leakage = 0.00272758 W
            Runtime Dynamic = 0.043109 W

          Branch Predictor:
            Area = 0.138516 mm^2
            Peak Dynamic = 0.0597838 W
            Subthreshold Leakage = 0.0199703 W
            Subthreshold Leakage with power gating = 0.0103282 W
            Gate Leakage = 0.000757657 W
            Runtime Dynamic = 0.0140729 W

              Global Predictor:
                Area = 0.0435221 mm^2
                Peak Dynamic = 0.0168831 W
                Subthreshold Leakage = 0.00759719 W
                Subthreshold Leakage with power gating = 0.0039236 W
                Gate Leakage = 0.000278362 W
                Runtime Dynamic = 0.00438688 W

              Local Predictor:
              L1_Local Predictor:
                Area = 0.0257064 mm^2
                Peak Dynamic = 0.0142575 W
                Subthreshold Leakage = 0.00384344 W
                Subthreshold Leakage with power gating = 0.00198631 W
                Gate Leakage = 0.000154548 W
                Runtime Dynamic = 0.00379163 W

              L2_Local Predictor:
                Area = 0.0151917 mm^2
                Peak Dynamic = 0.00527447 W
                Subthreshold Leakage = 0.00181347 W
                Subthreshold Leakage with power gating = 0.000957045 W
                Gate Leakage = 8.00196e-05 W
                Runtime Dynamic = 0.00145176 W

              Chooser:
                Area = 0.0435221 mm^2
                Peak Dynamic = 0.0168831 W
                Subthreshold Leakage = 0.00759719 W
                Subthreshold Leakage with power gating = 0.0039236 W
                Gate Leakage = 0.000278362 W
                Runtime Dynamic = 0.00438688 W

              RAS:
                Area = 0.0105732 mm^2
                Peak Dynamic = 0.0117602 W
                Subthreshold Leakage = 0.000932505 W
                Subthreshold Leakage with power gating = 0.000494733 W
                Gate Leakage = 4.63858e-05 W
                Runtime Dynamic = 0.0015075 W

          Instruction Buffer:
            Area = 11.1802 mm^2
            Peak Dynamic = 4028.05 W
            Subthreshold Leakage = 1.03354 W
            Subthreshold Leakage with power gating = 0.389491 W
            Gate Leakage = 0.119458 W
            Runtime Dynamic = 41.8542 W

          Instruction Decoder:
            Area = 29.7278 mm^2
            Peak Dynamic = 21.9846 W
            Subthreshold Leakage = 0.442943 W
            Subthreshold Leakage with power gating = 0.166104 W
            Gate Leakage = 0.0222493 W
            Runtime Dynamic = 0.342652 W

      Renaming Unit:
        Area = 27.8071 mm^2
        Peak Dynamic = 2556.62 W
        Subthreshold Leakage = 0.87819 W
        Subthreshold Leakage with power gating = 0.437089 W
        Gate Leakage = 0.0906085 W
        Runtime Dynamic = 38.7186 W

          Int Front End RAT:
            Area = 19.3301 mm^2
            Peak Dynamic = 2465.83 W
            Subthreshold Leakage = 0.500294 W
            Subthreshold Leakage with power gating = 0.285168 W
            Gate Leakage = 0.0323898 W
            Runtime Dynamic = 38.3361 W

          FP Front End RAT:
            Area = 0.168486 mm^2
            Peak Dynamic = 78.3725 W
            Subthreshold Leakage = 0.0437281 W
            Subthreshold Leakage with power gating = 0.024925 W
            Gate Leakage = 0.00489731 W
            Runtime Dynamic = 0.150442 W

          Free List:
            Area = 7.5975 mm^2
            Peak Dynamic = 7.41375 W
            Subthreshold Leakage = 0.0190978 W
            Subthreshold Leakage with power gating = 0.00884518 W
            Gate Leakage = 0.00102434 W
            Runtime Dynamic = 0.231991 W

      Load Store Unit:
        Area = 9.47562 mm^2
        Peak Dynamic = 8.13209 W
        Subthreshold Leakage = 0.886727 W
        Subthreshold Leakage with power gating = 0.394071 W
        Gate Leakage = 0.0841218 W
        Runtime Dynamic = 2.63175 W

          Data Cache:
            Area = 6.84535 mm^2
            Peak Dynamic = 5.1472 W
            Subthreshold Leakage = 0.527675 W
            Subthreshold Leakage with power gating = 0.25085 W
            Gate Leakage = 0.0279261 W
            Runtime Dynamic = 1.88139 W

          LoadQ:
            Area = 0.0836782 mm^2
            Peak Dynamic = 0.1265 W
            Subthreshold Leakage = 0.00941961 W
            Subthreshold Leakage with power gating = 0.00536918 W
            Gate Leakage = 0.00059896 W
            Runtime Dynamic = 0.1265 W

          StoreQ:
            Area = 0.322079 mm^2
            Peak Dynamic = 0.311928 W
            Subthreshold Leakage = 0.0345621 W
            Subthreshold Leakage with power gating = 0.0197004 W
            Gate Leakage = 0.00329971 W
            Runtime Dynamic = 0.623857 W

      Memory Management Unit:
        Area = 1.10051 mm^2
        Peak Dynamic = 4.28415 W
        Subthreshold Leakage = 0.372016 W
        Subthreshold Leakage with power gating = 0.150611 W
        Gate Leakage = 0.057119 W
        Runtime Dynamic = 0.116528 W

          Itlb:
            Area = 0.301552 mm^2
            Peak Dynamic = 0.398996 W
            Subthreshold Leakage = 0.0413758 W
            Subthreshold Leakage with power gating = 0.0235842 W
            Gate Leakage = 0.00393464 W
            Runtime Dynamic = 0.00564145 W

          Dtlb:
            Area = 0.0879726 mm^2
            Peak Dynamic = 0.110704 W
            Subthreshold Leakage = 0.0155699 W
            Subthreshold Leakage with power gating = 0.00887485 W
            Gate Leakage = 0.00088729 W
            Runtime Dynamic = 0.11088 W

      Execution Unit:
        Area = 1686.67 mm^2
        Peak Dynamic = 202645 W
        Subthreshold Leakage = 70.0229 W
        Subthreshold Leakage with power gating = 29.962 W
        Gate Leakage = 5.03755 W
        Runtime Dynamic = 3213.37 W

          Register Files:
            Area = 111.819 mm^2
            Peak Dynamic = 1.86905 W
            Subthreshold Leakage = 1.55192 W
            Subthreshold Leakage with power gating = 0.587195 W
            Gate Leakage = 0.101689 W
            Runtime Dynamic = 1.57315 W

              Integer RF:
                Area = 74.0344 mm^2
                Peak Dynamic = 1.52373 W
                Subthreshold Leakage = 1.06477 W
                Subthreshold Leakage with power gating = 0.401522 W
                Gate Leakage = 0.0700135 W
                Runtime Dynamic = 1.40625 W

              Floating Point RF:
                Area = 37.7848 mm^2
                Peak Dynamic = 0.345324 W
                Subthreshold Leakage = 0.487147 W
                Subthreshold Leakage with power gating = 0.185673 W
                Gate Leakage = 0.0316755 W
                Runtime Dynamic = 0.166903 W

          Instruction Scheduler:
            Area = 1561.2 mm^2
            Peak Dynamic = 202642 W
            Subthreshold Leakage = 59.5387 W
            Subthreshold Leakage with power gating = 26.0252 W
            Gate Leakage = 4.31521 W
            Runtime Dynamic = 3202.16 W

              Instruction Window:
                Area = 242.241 mm^2
                Peak Dynamic = 491.03 W
                Subthreshold Leakage = 18.7871 W
                Subthreshold Leakage with power gating = 10.7075 W
                Gate Leakage = 1.23925 W
                Runtime Dynamic = 9.88788 W

              FP Instruction Window:
                Area = 0.328073 mm^2
                Peak Dynamic = 2.30959 W
                Subthreshold Leakage = 0.0225127 W
                Subthreshold Leakage with power gating = 0.0116864 W
                Gate Leakage = 0.00181534 W
                Runtime Dynamic = 0.665708 W

              ROB:
                Area = 1318.63 mm^2
                Peak Dynamic = 202149 W
                Subthreshold Leakage = 40.7291 W
                Subthreshold Leakage with power gating = 15.306 W
                Gate Leakage = 3.07414 W
                Runtime Dynamic = 3191.6 W

          Integer ALUs (Count: 96 ):
            Area = 7.53393 mm^2
            Peak Dynamic = 0.369711 W
            Subthreshold Leakage = 6.43552 W
            Subthreshold Leakage with power gating = 2.41332 W
            Gate Leakage = 0.424466 W
            Runtime Dynamic = 0.384881 W

          Floating Point Units (FPUs) (Count: 2 ):
            Area = 4.6585 mm^2
            Peak Dynamic = 0.00971281 W
            Subthreshold Leakage = 0.994829 W
            Subthreshold Leakage with power gating = 0.373061 W
            Gate Leakage = 0.0656156 W
            Runtime Dynamic = 0.308306 W

          Complex ALUs (Mul/Div) (Count: 1 ):
            Area = 0.235435 mm^2
            Peak Dynamic = 0.0012092 W
            Subthreshold Leakage = 0.20111 W
            Subthreshold Leakage with power gating = 0.0754163 W
            Gate Leakage = 0.0132646 W
            Runtime Dynamic = 0.203638 W

          Results Broadcast Bus:
            Area Overhead = 0.510923 mm^2
            Peak Dynamic = 0.26524 W
            Subthreshold Leakage = 0.985661 W
            Subthreshold Leakage with power gating = 0.369623 W
            Gate Leakage = 0.0650109 W
            Runtime Dynamic = 8.74615 W

    L2
    Area = 22.2273 mm^2
    Peak Dynamic = 0.0212574 W
    Subthreshold Leakage = 4.28281 W
    Subthreshold Leakage with power gating = 1.92539 W
    Gate Leakage = 0.0518439 W
    Runtime Dynamic = 0.00320023 W

*****************************************************************************************
Core:
      Area = 1798.95 mm^2
      Peak Dynamic = 209279 W
      Subthreshold Leakage = 80.6998 W
      Subthreshold Leakage with power gating = 34.5279 W
      Gate Leakage = 5.68471 W
      Runtime Dynamic = 3347.72 W

      Instruction Fetch Unit:
        Area = 47.2731 mm^2
        Peak Dynamic = 4064.44 W
        Subthreshold Leakage = 2.37932 W
        Subthreshold Leakage with power gating = 0.95452 W
        Gate Leakage = 0.23961 W
        Runtime Dynamic = 42.9828 W

          Instruction Cache:
            Area = 4.86613 mm^2
            Peak Dynamic = 9.16413 W
            Subthreshold Leakage = 0.486629 W
            Subthreshold Leakage with power gating = 0.22691 W
            Gate Leakage = 0.0421203 W
            Runtime Dynamic = 0.0729355 W

          Branch Target Buffer:
            Area = 0.64954 mm^2
            Peak Dynamic = 0.177867 W
            Subthreshold Leakage = 0.0811682 W
            Subthreshold Leakage with power gating = 0.0435357 W
            Gate Leakage = 0.00272758 W
            Runtime Dynamic = 0.0437962 W

          Branch Predictor:
            Area = 0.138516 mm^2
            Peak Dynamic = 0.0597838 W
            Subthreshold Leakage = 0.0199703 W
            Subthreshold Leakage with power gating = 0.0103282 W
            Gate Leakage = 0.000757657 W
            Runtime Dynamic = 0.0142962 W

              Global Predictor:
                Area = 0.0435221 mm^2
                Peak Dynamic = 0.0168831 W
                Subthreshold Leakage = 0.00759719 W
                Subthreshold Leakage with power gating = 0.0039236 W
                Gate Leakage = 0.000278362 W
                Runtime Dynamic = 0.00445668 W

              Local Predictor:
              L1_Local Predictor:
                Area = 0.0257064 mm^2
                Peak Dynamic = 0.0142575 W
                Subthreshold Leakage = 0.00384344 W
                Subthreshold Leakage with power gating = 0.00198631 W
                Gate Leakage = 0.000154548 W
                Runtime Dynamic = 0.00385193 W

              L2_Local Predictor:
                Area = 0.0151917 mm^2
                Peak Dynamic = 0.00527447 W
                Subthreshold Leakage = 0.00181347 W
                Subthreshold Leakage with power gating = 0.000957045 W
                Gate Leakage = 8.00196e-05 W
                Runtime Dynamic = 0.00147483 W

              Chooser:
                Area = 0.0435221 mm^2
                Peak Dynamic = 0.0168831 W
                Subthreshold Leakage = 0.00759719 W
                Subthreshold Leakage with power gating = 0.0039236 W
                Gate Leakage = 0.000278362 W
                Runtime Dynamic = 0.00445668 W

              RAS:
                Area = 0.0105732 mm^2
                Peak Dynamic = 0.0117602 W
                Subthreshold Leakage = 0.000932505 W
                Subthreshold Leakage with power gating = 0.000494733 W
                Gate Leakage = 4.63858e-05 W
                Runtime Dynamic = 0.0015309 W

          Instruction Buffer:
            Area = 11.1802 mm^2
            Peak Dynamic = 4028.05 W
            Subthreshold Leakage = 1.03354 W
            Subthreshold Leakage with power gating = 0.389491 W
            Gate Leakage = 0.119458 W
            Runtime Dynamic = 42.5038 W

          Instruction Decoder:
            Area = 29.7278 mm^2
            Peak Dynamic = 21.9846 W
            Subthreshold Leakage = 0.442943 W
            Subthreshold Leakage with power gating = 0.166104 W
            Gate Leakage = 0.0222493 W
            Runtime Dynamic = 0.34797 W

      Renaming Unit:
        Area = 27.8071 mm^2
        Peak Dynamic = 2556.62 W
        Subthreshold Leakage = 0.87819 W
        Subthreshold Leakage with power gating = 0.437089 W
        Gate Leakage = 0.0906085 W
        Runtime Dynamic = 39.3172 W

          Int Front End RAT:
            Area = 19.3301 mm^2
            Peak Dynamic = 2465.83 W
            Subthreshold Leakage = 0.500294 W
            Subthreshold Leakage with power gating = 0.285168 W
            Gate Leakage = 0.0323898 W
            Runtime Dynamic = 38.9311 W

          FP Front End RAT:
            Area = 0.168486 mm^2
            Peak Dynamic = 78.3725 W
            Subthreshold Leakage = 0.0437281 W
            Subthreshold Leakage with power gating = 0.024925 W
            Gate Leakage = 0.00489731 W
            Runtime Dynamic = 0.150442 W

          Free List:
            Area = 7.5975 mm^2
            Peak Dynamic = 7.41375 W
            Subthreshold Leakage = 0.0190978 W
            Subthreshold Leakage with power gating = 0.00884518 W
            Gate Leakage = 0.00102434 W
            Runtime Dynamic = 0.235578 W

      Load Store Unit:
        Area = 9.47562 mm^2
        Peak Dynamic = 8.23673 W
        Subthreshold Leakage = 0.886727 W
        Subthreshold Leakage with power gating = 0.394071 W
        Gate Leakage = 0.0841218 W
        Runtime Dynamic = 2.67151 W

          Data Cache:
            Area = 6.84535 mm^2
            Peak Dynamic = 5.20654 W
            Subthreshold Leakage = 0.527675 W
            Subthreshold Leakage with power gating = 0.25085 W
            Gate Leakage = 0.0279261 W
            Runtime Dynamic = 1.90976 W

          LoadQ:
            Area = 0.0836782 mm^2
            Peak Dynamic = 0.12842 W
            Subthreshold Leakage = 0.00941961 W
            Subthreshold Leakage with power gating = 0.00536918 W
            Gate Leakage = 0.00059896 W
            Runtime Dynamic = 0.12842 W

          StoreQ:
            Area = 0.322079 mm^2
            Peak Dynamic = 0.316662 W
            Subthreshold Leakage = 0.0345621 W
            Subthreshold Leakage with power gating = 0.0197004 W
            Gate Leakage = 0.00329971 W
            Runtime Dynamic = 0.633325 W

      Memory Management Unit:
        Area = 1.10051 mm^2
        Peak Dynamic = 4.30615 W
        Subthreshold Leakage = 0.372016 W
        Subthreshold Leakage with power gating = 0.150611 W
        Gate Leakage = 0.057119 W
        Runtime Dynamic = 0.118213 W

          Itlb:
            Area = 0.301552 mm^2
            Peak Dynamic = 0.399995 W
            Subthreshold Leakage = 0.0413758 W
            Subthreshold Leakage with power gating = 0.0235842 W
            Gate Leakage = 0.00393464 W
            Runtime Dynamic = 0.00564686 W

          Dtlb:
            Area = 0.0879726 mm^2
            Peak Dynamic = 0.112384 W
            Subthreshold Leakage = 0.0155699 W
            Subthreshold Leakage with power gating = 0.00887485 W
            Gate Leakage = 0.00088729 W
            Runtime Dynamic = 0.11256 W

      Execution Unit:
        Area = 1686.67 mm^2
        Peak Dynamic = 202645 W
        Subthreshold Leakage = 70.0229 W
        Subthreshold Leakage with power gating = 29.962 W
        Gate Leakage = 5.03755 W
        Runtime Dynamic = 3262.63 W

          Register Files:
            Area = 111.819 mm^2
            Peak Dynamic = 1.89036 W
            Subthreshold Leakage = 1.55192 W
            Subthreshold Leakage with power gating = 0.587195 W
            Gate Leakage = 0.101689 W
            Runtime Dynamic = 1.59757 W

              Integer RF:
                Area = 74.0344 mm^2
                Peak Dynamic = 1.54504 W
                Subthreshold Leakage = 1.06477 W
                Subthreshold Leakage with power gating = 0.401522 W
                Gate Leakage = 0.0700135 W
                Runtime Dynamic = 1.42807 W

              Floating Point RF:
                Area = 37.7848 mm^2
                Peak Dynamic = 0.345324 W
                Subthreshold Leakage = 0.487147 W
                Subthreshold Leakage with power gating = 0.185673 W
                Gate Leakage = 0.0316755 W
                Runtime Dynamic = 0.169493 W

          Instruction Scheduler:
            Area = 1561.2 mm^2
            Peak Dynamic = 202642 W
            Subthreshold Leakage = 59.5387 W
            Subthreshold Leakage with power gating = 26.0252 W
            Gate Leakage = 4.31521 W
            Runtime Dynamic = 3251.25 W

              Instruction Window:
                Area = 242.241 mm^2
                Peak Dynamic = 491.03 W
                Subthreshold Leakage = 18.7871 W
                Subthreshold Leakage with power gating = 10.7075 W
                Gate Leakage = 1.23925 W
                Runtime Dynamic = 10.0413 W

              FP Instruction Window:
                Area = 0.328073 mm^2
                Peak Dynamic = 2.30959 W
                Subthreshold Leakage = 0.0225127 W
                Subthreshold Leakage with power gating = 0.0116864 W
                Gate Leakage = 0.00181534 W
                Runtime Dynamic = 0.67604 W

              ROB:
                Area = 1318.63 mm^2
                Peak Dynamic = 202149 W
                Subthreshold Leakage = 40.7291 W
                Subthreshold Leakage with power gating = 15.306 W
                Gate Leakage = 3.07414 W
                Runtime Dynamic = 3240.54 W

          Integer ALUs (Count: 96 ):
            Area = 7.53393 mm^2
            Peak Dynamic = 0.375461 W
            Subthreshold Leakage = 6.43552 W
            Subthreshold Leakage with power gating = 2.41332 W
            Gate Leakage = 0.424466 W
            Runtime Dynamic = 0.389196 W

          Floating Point Units (FPUs) (Count: 2 ):
            Area = 4.6585 mm^2
            Peak Dynamic = 0.00971281 W
            Subthreshold Leakage = 0.994829 W
            Subthreshold Leakage with power gating = 0.373061 W
            Gate Leakage = 0.0656156 W
            Runtime Dynamic = 0.308306 W

          Complex ALUs (Mul/Div) (Count: 1 ):
            Area = 0.235435 mm^2
            Peak Dynamic = 0.0012092 W
            Subthreshold Leakage = 0.20111 W
            Subthreshold Leakage with power gating = 0.0754163 W
            Gate Leakage = 0.0132646 W
            Runtime Dynamic = 0.203638 W

          Results Broadcast Bus:
            Area Overhead = 0.510923 mm^2
            Peak Dynamic = 0.26891 W
            Subthreshold Leakage = 0.985661 W
            Subthreshold Leakage with power gating = 0.369623 W
            Gate Leakage = 0.0650109 W
            Runtime Dynamic = 8.87867 W

    L2
    Area = 22.2273 mm^2
    Peak Dynamic = 0.0212666 W
    Subthreshold Leakage = 4.28281 W
    Subthreshold Leakage with power gating = 1.92539 W
    Gate Leakage = 0.0518439 W
    Runtime Dynamic = 0.0030312 W

*****************************************************************************************
Core:
      Area = 1798.95 mm^2
      Peak Dynamic = 209276 W
      Subthreshold Leakage = 80.6998 W
      Subthreshold Leakage with power gating = 34.5279 W
      Gate Leakage = 5.68471 W
      Runtime Dynamic = 2933.81 W

      Instruction Fetch Unit:
        Area = 47.2731 mm^2
        Peak Dynamic = 4062.83 W
        Subthreshold Leakage = 2.37932 W
        Subthreshold Leakage with power gating = 0.95452 W
        Gate Leakage = 0.23961 W
        Runtime Dynamic = 37.6096 W

          Instruction Cache:
            Area = 4.86613 mm^2
            Peak Dynamic = 8.12075 W
            Subthreshold Leakage = 0.486629 W
            Subthreshold Leakage with power gating = 0.22691 W
            Gate Leakage = 0.0421203 W
            Runtime Dynamic = 0.0729355 W

          Branch Target Buffer:
            Area = 0.64954 mm^2
[...]
                Runtime Dynamic = 0.0014864 W

              Chooser:
                Area = 0.0435221 mm^2
                Peak Dynamic = 0.0168831 W
                Subthreshold Leakage = 0.00759719 W
                Subthreshold Leakage with power gating = 0.0039236 W
                Gate Leakage = 0.000278362 W
                Runtime Dynamic = 0.00449153 W

              RAS:
                Area = 0.0105732 mm^2
                Peak Dynamic = 0.0117602 W
                Subthreshold Leakage = 0.000932505 W
                Subthreshold Leakage with power gating = 0.000494733 W
                Gate Leakage = 4.63858e-05 W
                Runtime Dynamic = 0.00154251 W

          Instruction Buffer:
            Area = 11.1802 mm^2
            Peak Dynamic = 4028.05 W
            Subthreshold Leakage = 1.03354 W
            Subthreshold Leakage with power gating = 0.389491 W
            Gate Leakage = 0.119458 W
            Runtime Dynamic = 42.8254 W

          Instruction Decoder:
            Area = 29.7278 mm^2
            Peak Dynamic = 21.9846 W
            Subthreshold Leakage = 0.442943 W
            Subthreshold Leakage with power gating = 0.166104 W
            Gate Leakage = 0.0222493 W
            Runtime Dynamic = 0.350604 W

      Renaming Unit:
        Area = 27.8071 mm^2
        Peak Dynamic = 2556.62 W
        Subthreshold Leakage = 0.87819 W
        Subthreshold Leakage with power gating = 0.437089 W
        Gate Leakage = 0.0906085 W
        Runtime Dynamic = 39.6135 W

          Int Front End RAT:
            Area = 19.3301 mm^2
            Peak Dynamic = 2465.83 W
            Subthreshold Leakage = 0.500294 W
            Subthreshold Leakage with power gating = 0.285168 W
            Gate Leakage = 0.0323898 W
            Runtime Dynamic = 39.2257 W

          FP Front End RAT:
            Area = 0.168486 mm^2
            Peak Dynamic = 78.3725 W
            Subthreshold Leakage = 0.0437281 W
            Subthreshold Leakage with power gating = 0.024925 W
            Gate Leakage = 0.00489731 W
            Runtime Dynamic = 0.150442 W

          Free List:
            Area = 7.5975 mm^2
            Peak Dynamic = 7.41375 W
            Subthreshold Leakage = 0.0190978 W
            Subthreshold Leakage with power gating = 0.00884518 W
            Gate Leakage = 0.00102434 W
            Runtime Dynamic = 0.237354 W

      Load Store Unit:
        Area = 9.47562 mm^2
        Peak Dynamic = 8.28866 W
        Subthreshold Leakage = 0.886727 W
        Subthreshold Leakage with power gating = 0.394071 W
        Gate Leakage = 0.0841218 W
        Runtime Dynamic = 2.69156 W

          Data Cache:
            Area = 6.84535 mm^2
            Peak Dynamic = 5.23599 W
            Subthreshold Leakage = 0.527675 W
            Subthreshold Leakage with power gating = 0.25085 W
            Gate Leakage = 0.0279261 W
            Runtime Dynamic = 1.92416 W

          LoadQ:
            Area = 0.0836782 mm^2
            Peak Dynamic = 0.129373 W
            Subthreshold Leakage = 0.00941961 W
            Subthreshold Leakage with power gating = 0.00536918 W
            Gate Leakage = 0.00059896 W
            Runtime Dynamic = 0.129373 W

          StoreQ:
            Area = 0.322079 mm^2
            Peak Dynamic = 0.319011 W
            Subthreshold Leakage = 0.0345621 W
            Subthreshold Leakage with power gating = 0.0197004 W
            Gate Leakage = 0.00329971 W
            Runtime Dynamic = 0.638024 W

      Memory Management Unit:
        Area = 1.10051 mm^2
        Peak Dynamic = 4.31657 W
        Subthreshold Leakage = 0.372016 W
        Subthreshold Leakage with power gating = 0.150611 W
        Gate Leakage = 0.057119 W
        Runtime Dynamic = 0.119048 W

          Itlb:
            Area = 0.301552 mm^2
            Peak Dynamic = 0.399995 W
            Subthreshold Leakage = 0.0413758 W
            Subthreshold Leakage with power gating = 0.0235842 W
            Gate Leakage = 0.00393464 W
            Runtime Dynamic = 0.00564686 W

          Dtlb:
            Area = 0.0879726 mm^2
            Peak Dynamic = 0.113218 W
            Subthreshold Leakage = 0.0155699 W
            Subthreshold Leakage with power gating = 0.00887485 W
            Gate Leakage = 0.00088729 W
            Runtime Dynamic = 0.113395 W

      Execution Unit:
        Area = 1686.67 mm^2
        Peak Dynamic = 202645 W
        Subthreshold Leakage = 70.0229 W
        Subthreshold Leakage with power gating = 29.962 W
        Gate Leakage = 5.03755 W
        Runtime Dynamic = 3287.01 W

          Register Files:
            Area = 111.819 mm^2
            Peak Dynamic = 1.90095 W
            Subthreshold Leakage = 1.55192 W
            Subthreshold Leakage with power gating = 0.587195 W
            Gate Leakage = 0.101689 W
            Runtime Dynamic = 1.60965 W

              Integer RF:
                Area = 74.0344 mm^2
                Peak Dynamic = 1.55562 W
                Subthreshold Leakage = 1.06477 W
                Subthreshold Leakage with power gating = 0.401522 W
                Gate Leakage = 0.0700135 W
                Runtime Dynamic = 1.43888 W

              Floating Point RF:
                Area = 37.7848 mm^2
                Peak Dynamic = 0.345324 W
                Subthreshold Leakage = 0.487147 W
                Subthreshold Leakage with power gating = 0.185673 W
                Gate Leakage = 0.0316755 W
                Runtime Dynamic = 0.170776 W

          Instruction Scheduler:
            Area = 1561.2 mm^2
            Peak Dynamic = 202642 W
            Subthreshold Leakage = 59.5387 W
            Subthreshold Leakage with power gating = 26.0252 W
            Gate Leakage = 4.31521 W
            Runtime Dynamic = 3275.55 W

              Instruction Window:
                Area = 242.241 mm^2
                Peak Dynamic = 491.03 W
                Subthreshold Leakage = 18.7871 W
                Subthreshold Leakage with power gating = 10.7075 W
                Gate Leakage = 1.23925 W
                Runtime Dynamic = 10.1173 W

              FP Instruction Window:
                Area = 0.328073 mm^2
                Peak Dynamic = 2.30959 W
                Subthreshold Leakage = 0.0225127 W
                Subthreshold Leakage with power gating = 0.0116864 W
                Gate Leakage = 0.00181534 W
                Runtime Dynamic = 0.681156 W

              ROB:
                Area = 1318.63 mm^2
                Peak Dynamic = 202149 W
                Subthreshold Leakage = 40.7291 W
                Subthreshold Leakage with power gating = 15.306 W
                Gate Leakage = 3.07414 W
                Runtime Dynamic = 3264.76 W

          Integer ALUs (Count: 96 ):
            Area = 7.53393 mm^2
            Peak Dynamic = 0.378319 W
            Subthreshold Leakage = 6.43552 W
            Subthreshold Leakage with power gating = 2.41332 W
            Gate Leakage = 0.424466 W
            Runtime Dynamic = 0.391329 W

          Floating Point Units (FPUs) (Count: 2 ):
            Area = 4.6585 mm^2
            Peak Dynamic = 0.00971281 W
            Subthreshold Leakage = 0.994829 W
            Subthreshold Leakage with power gating = 0.373061 W
            Gate Leakage = 0.0656156 W
            Runtime Dynamic = 0.308306 W

          Complex ALUs (Mul/Div) (Count: 1 ):
            Area = 0.235435 mm^2
            Peak Dynamic = 0.0012092 W
            Subthreshold Leakage = 0.20111 W
            Subthreshold Leakage with power gating = 0.0754163 W
            Gate Leakage = 0.0132646 W
            Runtime Dynamic = 0.203638 W

          Results Broadcast Bus:
            Area Overhead = 0.510923 mm^2
            Peak Dynamic = 0.270733 W
            Subthreshold Leakage = 0.985661 W
            Subthreshold Leakage with power gating = 0.369623 W
            Gate Leakage = 0.0650109 W
            Runtime Dynamic = 8.9442 W

    L2
    Area = 22.2273 mm^2
    Peak Dynamic = 0.0214227 W
    Subthreshold Leakage = 4.28281 W
    Subthreshold Leakage with power gating = 1.92539 W
    Gate Leakage = 0.0518439 W
    Runtime Dynamic = 0.00331902 W

*****************************************************************************************
Core:
      Area = 1798.95 mm^2
      Peak Dynamic = 209277 W
      Subthreshold Leakage = 80.6998 W
      Subthreshold Leakage with power gating = 34.5279 W
      Gate Leakage = 5.68471 W
      Runtime Dynamic = 3079.8 W

      Instruction Fetch Unit:
        Area = 47.2731 mm^2
        Peak Dynamic = 4063.46 W
        Subthreshold Leakage = 2.37932 W
        Subthreshold Leakage with power gating = 0.95452 W
        Gate Leakage = 0.23961 W
        Runtime Dynamic = 39.5052 W

          Instruction Cache:
            Area = 4.86613 mm^2
            Peak Dynamic = 8.53084 W
            Subthreshold Leakage = 0.486629 W
            Subthreshold Leakage with power gating = 0.22691 W
            Gate Leakage = 0.0421203 W
            Runtime Dynamic = 0.0728693 W

          Branch Target Buffer:
            Area = 0.64954 mm^2
            Peak Dynamic = 0.177867 W
            Subthreshold Leakage = 0.0811682 W
            Subthreshold Leakage with power gating = 0.0435357 W
            Gate Leakage = 0.00272758 W
            Runtime Dynamic = 0.040147 W

          Branch Predictor:
            Area = 0.138516 mm^2
            Peak Dynamic = 0.0597838 W
            Subthreshold Leakage = 0.0199703 W
            Subthreshold Leakage with power gating = 0.0103282 W
            Gate Leakage = 0.000757657 W
            Runtime Dynamic = 0.0131093 W

              Global Predictor:
                Area = 0.0435221 mm^2
                Peak Dynamic = 0.0168831 W
                Subthreshold Leakage = 0.00759719 W
                Subthreshold Leakage with power gating = 0.0039236 W
                Gate Leakage = 0.000278362 W
                Runtime Dynamic = 0.0040856 W

              Local Predictor:
              L1_Local Predictor:
                Area = 0.0257064 mm^2
                Peak Dynamic = 0.0142575 W
                Subthreshold Leakage = 0.00384344 W
                Subthreshold Leakage with power gating = 0.00198631 W
                Gate Leakage = 0.000154548 W
                Runtime Dynamic = 0.00353127 W

              L2_Local Predictor:
                Area = 0.0151917 mm^2
                Peak Dynamic = 0.00527447 W
                Subthreshold Leakage = 0.00181347 W
                Subthreshold Leakage with power gating = 0.000957045 W
                Gate Leakage = 8.00196e-05 W
                Runtime Dynamic = 0.00135209 W

              Chooser:
                Area = 0.0435221 mm^2
                Peak Dynamic = 0.0168831 W
                Subthreshold Leakage = 0.00759719 W
                Subthreshold Leakage with power gating = 0.0039236 W
                Gate Leakage = 0.000278362 W
                Runtime Dynamic = 0.0040856 W

              RAS:
                Area = 0.0105732 mm^2
                Peak Dynamic = 0.0117602 W
                Subthreshold Leakage = 0.000932505 W
                Subthreshold Leakage with power gating = 0.000494733 W
                Gate Leakage = 4.63858e-05 W
                Runtime Dynamic = 0.00140686 W

          Instruction Buffer:
            Area = 11.1802 mm^2
            Peak Dynamic = 4028.05 W
            Subthreshold Leakage = 1.03354 W
            Subthreshold Leakage with power gating = 0.389491 W
            Gate Leakage = 0.119458 W
            Runtime Dynamic = 39.0593 W

          Instruction Decoder:
            Area = 29.7278 mm^2
            Peak Dynamic = 21.9846 W
            Subthreshold Leakage = 0.442943 W
            Subthreshold Leakage with power gating = 0.166104 W
            Gate Leakage = 0.0222493 W
            Runtime Dynamic = 0.319771 W

      Renaming Unit:
        Area = 27.8071 mm^2
        Peak Dynamic = 2556.62 W
        Subthreshold Leakage = 0.87819 W
        Subthreshold Leakage with power gating = 0.437089 W
        Gate Leakage = 0.0906085 W
        Runtime Dynamic = 36.1433 W

          Int Front End RAT:
            Area = 19.3301 mm^2
            Peak Dynamic = 2465.83 W
            Subthreshold Leakage = 0.500294 W
            Subthreshold Leakage with power gating = 0.285168 W
            Gate Leakage = 0.0323898 W
            Runtime Dynamic = 35.7762 W

          FP Front End RAT:
            Area = 0.168486 mm^2
            Peak Dynamic = 78.3725 W
            Subthreshold Leakage = 0.0437281 W
            Subthreshold Leakage with power gating = 0.024925 W
            Gate Leakage = 0.00489731 W
            Runtime Dynamic = 0.150442 W

          Free List:
            Area = 7.5975 mm^2
            Peak Dynamic = 7.41375 W
            Subthreshold Leakage = 0.0190978 W
            Subthreshold Leakage with power gating = 0.00884518 W
            Gate Leakage = 0.00102434 W
            Runtime Dynamic = 0.216559 W

      Load Store Unit:
        Area = 9.47562 mm^2
        Peak Dynamic = 7.68096 W
        Subthreshold Leakage = 0.886727 W
        Subthreshold Leakage with power gating = 0.394071 W
        Gate Leakage = 0.0841218 W
        Runtime Dynamic = 2.45954 W

          Data Cache:
            Area = 6.84535 mm^2
            Peak Dynamic = 4.89137 W
            Subthreshold Leakage = 0.527675 W
            Subthreshold Leakage with power gating = 0.25085 W
            Gate Leakage = 0.0279261 W
            Runtime Dynamic = 1.75827 W

          LoadQ:
            Area = 0.0836782 mm^2
            Peak Dynamic = 0.118224 W
            Subthreshold Leakage = 0.00941961 W
            Subthreshold Leakage with power gating = 0.00536918 W
            Gate Leakage = 0.00059896 W
            Runtime Dynamic = 0.118224 W

          StoreQ:
            Area = 0.322079 mm^2
            Peak Dynamic = 0.291519 W
            Subthreshold Leakage = 0.0345621 W
            Subthreshold Leakage with power gating = 0.0197004 W
            Gate Leakage = 0.00329971 W
            Runtime Dynamic = 0.583039 W

      Memory Management Unit:
        Area = 1.10051 mm^2
        Peak Dynamic = 4.16696 W
        Subthreshold Leakage = 0.372016 W
        Subthreshold Leakage with power gating = 0.150611 W
        Gate Leakage = 0.057119 W
        Runtime Dynamic = 0.109271 W

          Itlb:
            Area = 0.301552 mm^2
            Peak Dynamic = 0.372353 W
            Subthreshold Leakage = 0.0413758 W
            Subthreshold Leakage with power gating = 0.0235842 W
            Gate Leakage = 0.00393464 W
            Runtime Dynamic = 0.00564145 W

          Dtlb:
            Area = 0.0879726 mm^2
            Peak Dynamic = 0.103461 W
            Subthreshold Leakage = 0.0155699 W
            Subthreshold Leakage with power gating = 0.00887485 W
            Gate Leakage = 0.00088729 W
            Runtime Dynamic = 0.103623 W

      Execution Unit:
        Area = 1686.67 mm^2
        Peak Dynamic = 202645 W
        Subthreshold Leakage = 70.0229 W
        Subthreshold Leakage with power gating = 29.962 W
        Gate Leakage = 5.03755 W
        Runtime Dynamic = 3001.58 W

          Register Files:
            Area = 111.819 mm^2
            Peak Dynamic = 1.77722 W
            Subthreshold Leakage = 1.55192 W
            Subthreshold Leakage with power gating = 0.587195 W
            Gate Leakage = 0.101689 W
            Runtime Dynamic = 1.4681 W

              Integer RF:
                Area = 74.0344 mm^2
                Peak Dynamic = 1.43189 W
                Subthreshold Leakage = 1.06477 W
                Subthreshold Leakage with power gating = 0.401522 W
                Gate Leakage = 0.0700135 W
                Runtime Dynamic = 1.31234 W

              Floating Point RF:
                Area = 37.7848 mm^2
                Peak Dynamic = 0.345324 W
                Subthreshold Leakage = 0.487147 W
                Subthreshold Leakage with power gating = 0.185673 W
                Gate Leakage = 0.0316755 W
                Runtime Dynamic = 0.155757 W

          Instruction Scheduler:
            Area = 1561.2 mm^2
            Peak Dynamic = 202642 W
            Subthreshold Leakage = 59.5387 W
            Subthreshold Leakage with power gating = 26.0252 W
            Gate Leakage = 4.31521 W
            Runtime Dynamic = 2991.05 W

              Instruction Window:
                Area = 242.241 mm^2
                Peak Dynamic = 491.03 W
                Subthreshold Leakage = 18.7871 W
                Subthreshold Leakage with power gating = 10.7075 W
                Gate Leakage = 1.23925 W
                Runtime Dynamic = 9.22759 W

              FP Instruction Window:
                Area = 0.328073 mm^2
                Peak Dynamic = 2.30959 W
                Subthreshold Leakage = 0.0225127 W
                Subthreshold Leakage with power gating = 0.0116864 W
                Gate Leakage = 0.00181534 W
                Runtime Dynamic = 0.621253 W

              ROB:
                Area = 1318.63 mm^2
                Peak Dynamic = 202149 W
                Subthreshold Leakage = 40.7291 W
                Subthreshold Leakage with power gating = 15.306 W
                Gate Leakage = 3.07414 W
                Runtime Dynamic = 2981.2 W

          Integer ALUs (Count: 96 ):
            Area = 7.53393 mm^2
            Peak Dynamic = 0.344923 W
            Subthreshold Leakage = 6.43552 W
            Subthreshold Leakage with power gating = 2.41332 W
            Gate Leakage = 0.424466 W
            Runtime Dynamic = 0.366347 W

          Floating Point Units (FPUs) (Count: 2 ):
            Area = 4.6585 mm^2
            Peak Dynamic = 0.00971281 W
            Subthreshold Leakage = 0.994829 W
            Subthreshold Leakage with power gating = 0.373061 W
            Gate Leakage = 0.0656156 W
            Runtime Dynamic = 0.308306 W

          Complex ALUs (Mul/Div) (Count: 1 ):
            Area = 0.235435 mm^2
            Peak Dynamic = 0.0012092 W
            Subthreshold Leakage = 0.20111 W
            Subthreshold Leakage with power gating = 0.0754163 W
            Gate Leakage = 0.0132646 W
            Runtime Dynamic = 0.203638 W

          Results Broadcast Bus:
            Area Overhead = 0.510923 mm^2
            Peak Dynamic = 0.249423 W
            Subthreshold Leakage = 0.985661 W
            Subthreshold Leakage with power gating = 0.369623 W
            Gate Leakage = 0.0650109 W
            Runtime Dynamic = 8.17684 W

    L2
    Area = 22.2273 mm^2
    Peak Dynamic = 0.0196046 W
    Subthreshold Leakage = 4.28281 W
    Subthreshold Leakage with power gating = 1.92539 W
    Gate Leakage = 0.0518439 W
    Runtime Dynamic = 0.00297505 W

*****************************************************************************************
      L3
      Area = 61.9075 mm^2
      Peak Dynamic = 0.200755 W
      Subthreshold Leakage = 6.80085 W
      Subthreshold Leakage with power gating = 3.32364 W
      Gate Leakage = 0.0484137 W
      Runtime Dynamic = 0.113935 W

*****************************************************************************************
      L3
      Area = 61.9075 mm^2
      Peak Dynamic = 0.191487 W
      Subthreshold Leakage = 6.80085 W
      Subthreshold Leakage with power gating = 3.32364 W
      Gate Leakage = 0.0484137 W
      Runtime Dynamic = 0.109801 W

*****************************************************************************************
BUSES
      Area = 32.1086 mm^2
      Peak Dynamic = 11.7555 W
      Subthreshold Leakage = 0.89824 W
      Subthreshold Leakage with power gating = 0.33684 W
      Gate Leakage = 0.0861381 W
      Runtime Dynamic = 1.5617 W

      Bus: 
        Area = 32.1086 mm^2
        Peak Dynamic = 11.7555 W
        Subthreshold Leakage = 0.89824 W
        Subthreshold Leakage with power gating = 0.33684 W
        Gate Leakage = 0.0861381 W
        Runtime Dynamic = 1.5617 W

*****************************************************************************************
